<additional>
    <!-- Default -->
    <vType accel="2.6" decel="4.5" emergencyDecel="9.0" startupDelay="0.0" id="pkw" length="5.0" maxSpeed="11.11" minGap="0.2" width="2.0" tau="1.0"/>
</additional>
