<additional>
    <!-- V3: Rainy -->
    <vType accel="0.75" decel="3.5" emergencyDecel="6.0" startupDelay="0.25" id="pkw" length="5.0" maxSpeed="11.111" minGap="2.5" width="2.0"/>
</additional>
