<additional>
    <!-- V2: Heavy Vehicles -->
    <vType accel="1.0" decel="2.5" emergencyDecel="6.0" startupDelay="0.75" id="pkw" length="5.0" maxSpeed="11.111" minGap="2.5" width="2.0"/>
</additional>
