<additional>
    <!-- V4: Snow -->
    <vType accel="0.5" decel="1.5" emergencyDecel="2.0" startupDelay="0.5" id="pkw" length="5.0" maxSpeed="11.111" minGap="2.5" width="2.0"/>
</additional>
