<?xml version="1.0" encoding="UTF-8"?>

<!-- generated on 2026-03-20 17:03:02.463208 by Eclipse SUMO cutRoutes.py v1.26.0
<configuration>
    <min-length value="2"/>
    <routes-output value="/home/asurite.ad.asu.edu/frafi1/git_projects/JL-GAT/data/raw_data/bullhead/bullhead_1/bullhead_1.rou.xml"/>
    <orig-net value="/home/asurite.ad.asu.edu/frafi1/git_projects/JL-GAT/data/raw_data/bullhead/bullhead.net.xml"/>
    <big value="True"/>
    <network value="/home/asurite.ad.asu.edu/frafi1/git_projects/JL-GAT/data/raw_data/bullhead/bullhead_1/bullhead_1.net.xml"/>
    <routeFiles value="/home/asurite.ad.asu.edu/frafi1/git_projects/JL-GAT/data/raw_data/bullhead/bullhead.rou.xml"/>
</configuration>
-->

<routes xmlns:xsi="http://www.w3.org/2001/XMLSchema-instance" xsi:noNamespaceSchemaLocation="http://sumo.dlr.de/xsd/routes_file.xsd">
<!-- <vType id="car" accel="2.6" decel="4.5" maxSpeed="13.39" minGap="2.5" tau="0.9"/> -->
    <vehicle id="39_76.0" type="car" depart="32400.00">
        <route edges="39_75 75_76"/>
    </vehicle>
    <vehicle id="39_77.0" type="car" depart="32400.00">
        <route edges="39_75 75_77"/>
    </vehicle>
    <vehicle id="39_78.0" type="car" depart="32400.00">
        <route edges="39_75 75_78"/>
    </vehicle>
    <vehicle id="76_39.0" type="car" depart="32400.00">
        <route edges="76_75 75_39"/>
    </vehicle>
    <vehicle id="76_77.0" type="car" depart="32400.00">
        <route edges="76_75 75_77"/>
    </vehicle>
    <vehicle id="76_78.0" type="car" depart="32400.00">
        <route edges="76_75 75_78"/>
    </vehicle>
    <vehicle id="77_39.0" type="car" depart="32400.00">
        <route edges="77_75 75_39"/>
    </vehicle>
    <vehicle id="77_76.0" type="car" depart="32400.00">
        <route edges="77_75 75_76"/>
    </vehicle>
    <vehicle id="77_78.0" type="car" depart="32400.00">
        <route edges="77_75 75_78"/>
    </vehicle>
    <vehicle id="78_39.0" type="car" depart="32400.00">
        <route edges="78_75 75_39"/>
    </vehicle>
    <vehicle id="78_76.0" type="car" depart="32400.00">
        <route edges="78_75 75_76"/>
    </vehicle>
    <vehicle id="78_77.0" type="car" depart="32400.00">
        <route edges="78_75 75_77"/>
    </vehicle>
    <vehicle id="78_39.1" type="car" depart="32405.55">
        <route edges="78_75 75_39"/>
    </vehicle>
    <vehicle id="39_78.1" type="car" depart="32406.65">
        <route edges="39_75 75_78"/>
    </vehicle>
    <vehicle id="78_39.2" type="car" depart="32411.09">
        <route edges="78_75 75_39"/>
    </vehicle>
    <vehicle id="39_78.2" type="car" depart="32413.31">
        <route edges="39_75 75_78"/>
    </vehicle>
    <vehicle id="78_39.3" type="car" depart="32416.64">
        <route edges="78_75 75_39"/>
    </vehicle>
    <vehicle id="39_78.3" type="car" depart="32419.96">
        <route edges="39_75 75_78"/>
    </vehicle>
    <vehicle id="78_39.4" type="car" depart="32422.18">
        <route edges="78_75 75_39"/>
    </vehicle>
    <vehicle id="39_78.4" type="car" depart="32426.62">
        <route edges="39_75 75_78"/>
    </vehicle>
    <vehicle id="78_39.5" type="car" depart="32427.73">
        <route edges="78_75 75_39"/>
    </vehicle>
    <vehicle id="39_78.5" type="car" depart="32433.27">
        <route edges="39_75 75_78"/>
    </vehicle>
    <vehicle id="78_39.6" type="car" depart="32433.28">
        <route edges="78_75 75_39"/>
    </vehicle>
    <vehicle id="78_39.7" type="car" depart="32438.82">
        <route edges="78_75 75_39"/>
    </vehicle>
    <vehicle id="39_78.6" type="car" depart="32439.92">
        <route edges="39_75 75_78"/>
    </vehicle>
    <vehicle id="78_39.8" type="car" depart="32444.37">
        <route edges="78_75 75_39"/>
    </vehicle>
    <vehicle id="39_78.7" type="car" depart="32446.58">
        <route edges="39_75 75_78"/>
    </vehicle>
    <vehicle id="78_39.9" type="car" depart="32449.91">
        <route edges="78_75 75_39"/>
    </vehicle>
    <vehicle id="39_78.8" type="car" depart="32453.23">
        <route edges="39_75 75_78"/>
    </vehicle>
    <vehicle id="78_76.1" type="car" depart="32453.73">
        <route edges="78_75 75_76"/>
    </vehicle>
    <vehicle id="78_39.10" type="car" depart="32455.46">
        <route edges="78_75 75_39"/>
    </vehicle>
    <vehicle id="39_78.9" type="car" depart="32459.89">
        <route edges="39_75 75_78"/>
    </vehicle>
    <vehicle id="78_39.11" type="car" depart="32461.01">
        <route edges="78_75 75_39"/>
    </vehicle>
    <vehicle id="39_78.10" type="car" depart="32466.54">
        <route edges="39_75 75_78"/>
    </vehicle>
    <vehicle id="78_39.12" type="car" depart="32466.55">
        <route edges="78_75 75_39"/>
    </vehicle>
    <vehicle id="78_39.13" type="car" depart="32472.10">
        <route edges="78_75 75_39"/>
    </vehicle>
    <vehicle id="39_78.11" type="car" depart="32473.19">
        <route edges="39_75 75_78"/>
    </vehicle>
    <vehicle id="78_39.14" type="car" depart="32477.64">
        <route edges="78_75 75_39"/>
    </vehicle>
    <vehicle id="39_78.12" type="car" depart="32479.85">
        <route edges="39_75 75_78"/>
    </vehicle>
    <vehicle id="78_39.15" type="car" depart="32483.19">
        <route edges="78_75 75_39"/>
    </vehicle>
    <vehicle id="39_78.13" type="car" depart="32486.50">
        <route edges="39_75 75_78"/>
    </vehicle>
    <vehicle id="39_77.1" type="car" depart="32487.80">
        <route edges="39_75 75_77"/>
    </vehicle>
    <vehicle id="78_39.16" type="car" depart="32488.74">
        <route edges="78_75 75_39"/>
    </vehicle>
    <vehicle id="39_78.14" type="car" depart="32493.16">
        <route edges="39_75 75_78"/>
    </vehicle>
    <vehicle id="78_39.17" type="car" depart="32494.28">
        <route edges="78_75 75_39"/>
    </vehicle>
    <vehicle id="39_78.15" type="car" depart="32499.81">
        <route edges="39_75 75_78"/>
    </vehicle>
    <vehicle id="78_39.18" type="car" depart="32499.83">
        <route edges="78_75 75_39"/>
    </vehicle>
    <vehicle id="78_39.19" type="car" depart="32505.37">
        <route edges="78_75 75_39"/>
    </vehicle>
    <vehicle id="39_78.16" type="car" depart="32506.46">
        <route edges="39_75 75_78"/>
    </vehicle>
    <vehicle id="78_76.2" type="car" depart="32507.46">
        <route edges="78_75 75_76"/>
    </vehicle>
    <vehicle id="78_39.20" type="car" depart="32510.92">
        <route edges="78_75 75_39"/>
    </vehicle>
    <vehicle id="39_78.17" type="car" depart="32513.12">
        <route edges="39_75 75_78"/>
    </vehicle>
    <vehicle id="78_39.21" type="car" depart="32516.47">
        <route edges="78_75 75_39"/>
    </vehicle>
    <vehicle id="39_78.18" type="car" depart="32519.77">
        <route edges="39_75 75_78"/>
    </vehicle>
    <vehicle id="76_78.1" type="car" depart="32520.00">
        <route edges="76_75 75_78"/>
    </vehicle>
    <vehicle id="78_39.22" type="car" depart="32522.01">
        <route edges="78_75 75_39"/>
    </vehicle>
    <vehicle id="39_78.19" type="car" depart="32526.43">
        <route edges="39_75 75_78"/>
    </vehicle>
    <vehicle id="78_39.23" type="car" depart="32527.56">
        <route edges="78_75 75_39"/>
    </vehicle>
    <vehicle id="39_78.20" type="car" depart="32533.08">
        <route edges="39_75 75_78"/>
    </vehicle>
    <vehicle id="78_39.24" type="car" depart="32533.10">
        <route edges="78_75 75_39"/>
    </vehicle>
    <vehicle id="78_39.25" type="car" depart="32538.65">
        <route edges="78_75 75_39"/>
    </vehicle>
    <vehicle id="39_78.21" type="car" depart="32539.73">
        <route edges="39_75 75_78"/>
    </vehicle>
    <vehicle id="78_39.26" type="car" depart="32544.20">
        <route edges="78_75 75_39"/>
    </vehicle>
    <vehicle id="39_78.22" type="car" depart="32546.39">
        <route edges="39_75 75_78"/>
    </vehicle>
    <vehicle id="78_39.27" type="car" depart="32549.74">
        <route edges="78_75 75_39"/>
    </vehicle>
    <vehicle id="39_78.23" type="car" depart="32553.04">
        <route edges="39_75 75_78"/>
    </vehicle>
    <vehicle id="78_39.28" type="car" depart="32555.29">
        <route edges="78_75 75_39"/>
    </vehicle>
    <vehicle id="39_78.24" type="car" depart="32559.70">
        <route edges="39_75 75_78"/>
    </vehicle>
    <vehicle id="78_39.29" type="car" depart="32560.83">
        <route edges="78_75 75_39"/>
    </vehicle>
    <vehicle id="78_76.3" type="car" depart="32561.19">
        <route edges="78_75 75_76"/>
    </vehicle>
    <vehicle id="78_77.1" type="car" depart="32563.64">
        <route edges="78_75 75_77"/>
    </vehicle>
    <vehicle id="39_78.25" type="car" depart="32566.35">
        <route edges="39_75 75_78"/>
    </vehicle>
    <vehicle id="78_39.30" type="car" depart="32566.38">
        <route edges="78_75 75_39"/>
    </vehicle>
    <vehicle id="78_39.31" type="car" depart="32571.93">
        <route edges="78_75 75_39"/>
    </vehicle>
    <vehicle id="39_78.26" type="car" depart="32573.00">
        <route edges="39_75 75_78"/>
    </vehicle>
    <vehicle id="39_77.2" type="car" depart="32575.61">
        <route edges="39_75 75_77"/>
    </vehicle>
    <vehicle id="78_39.32" type="car" depart="32577.47">
        <route edges="78_75 75_39"/>
    </vehicle>
    <vehicle id="39_78.27" type="car" depart="32579.66">
        <route edges="39_75 75_78"/>
    </vehicle>
    <vehicle id="78_39.33" type="car" depart="32583.02">
        <route edges="78_75 75_39"/>
    </vehicle>
    <vehicle id="39_78.28" type="car" depart="32586.31">
        <route edges="39_75 75_78"/>
    </vehicle>
    <vehicle id="78_39.34" type="car" depart="32588.56">
        <route edges="78_75 75_39"/>
    </vehicle>
    <vehicle id="39_78.29" type="car" depart="32592.97">
        <route edges="39_75 75_78"/>
    </vehicle>
    <vehicle id="78_39.35" type="car" depart="32594.11">
        <route edges="78_75 75_39"/>
    </vehicle>
    <vehicle id="39_78.30" type="car" depart="32599.62">
        <route edges="39_75 75_78"/>
    </vehicle>
    <vehicle id="78_39.36" type="car" depart="32599.66">
        <route edges="78_75 75_39"/>
    </vehicle>
    <vehicle id="76_77.1" type="car" depart="32600.00">
        <route edges="76_75 75_77"/>
    </vehicle>
    <vehicle id="78_39.37" type="car" depart="32605.20">
        <route edges="78_75 75_39"/>
    </vehicle>
    <vehicle id="39_78.31" type="car" depart="32606.27">
        <route edges="39_75 75_78"/>
    </vehicle>
    <vehicle id="78_39.38" type="car" depart="32610.75">
        <route edges="78_75 75_39"/>
    </vehicle>
    <vehicle id="77_78.1" type="car" depart="32611.76">
        <route edges="77_75 75_78"/>
    </vehicle>
    <vehicle id="39_78.32" type="car" depart="32612.93">
        <route edges="39_75 75_78"/>
    </vehicle>
    <vehicle id="78_76.4" type="car" depart="32614.92">
        <route edges="78_75 75_76"/>
    </vehicle>
    <vehicle id="78_39.39" type="car" depart="32616.29">
        <route edges="78_75 75_39"/>
    </vehicle>
    <vehicle id="39_78.33" type="car" depart="32619.58">
        <route edges="39_75 75_78"/>
    </vehicle>
    <vehicle id="78_39.40" type="car" depart="32621.84">
        <route edges="78_75 75_39"/>
    </vehicle>
    <vehicle id="39_78.34" type="car" depart="32626.24">
        <route edges="39_75 75_78"/>
    </vehicle>
    <vehicle id="78_39.41" type="car" depart="32627.39">
        <route edges="78_75 75_39"/>
    </vehicle>
    <vehicle id="39_78.35" type="car" depart="32632.89">
        <route edges="39_75 75_78"/>
    </vehicle>
    <vehicle id="78_39.42" type="car" depart="32632.93">
        <route edges="78_75 75_39"/>
    </vehicle>
    <vehicle id="78_39.43" type="car" depart="32638.48">
        <route edges="78_75 75_39"/>
    </vehicle>
    <vehicle id="39_78.36" type="car" depart="32639.54">
        <route edges="39_75 75_78"/>
    </vehicle>
    <vehicle id="76_78.2" type="car" depart="32640.00">
        <route edges="76_75 75_78"/>
    </vehicle>
    <vehicle id="78_39.44" type="car" depart="32644.02">
        <route edges="78_75 75_39"/>
    </vehicle>
    <vehicle id="39_78.37" type="car" depart="32646.20">
        <route edges="39_75 75_78"/>
    </vehicle>
    <vehicle id="78_39.45" type="car" depart="32649.57">
        <route edges="78_75 75_39"/>
    </vehicle>
    <vehicle id="39_78.38" type="car" depart="32652.85">
        <route edges="39_75 75_78"/>
    </vehicle>
    <vehicle id="78_39.46" type="car" depart="32655.12">
        <route edges="78_75 75_39"/>
    </vehicle>
    <vehicle id="77_39.1" type="car" depart="32657.14">
        <route edges="77_75 75_39"/>
    </vehicle>
    <vehicle id="77_76.1" type="car" depart="32657.14">
        <route edges="77_75 75_76"/>
    </vehicle>
    <vehicle id="39_78.39" type="car" depart="32659.51">
        <route edges="39_75 75_78"/>
    </vehicle>
    <vehicle id="78_39.47" type="car" depart="32660.66">
        <route edges="78_75 75_39"/>
    </vehicle>
    <vehicle id="39_77.3" type="car" depart="32663.41">
        <route edges="39_75 75_77"/>
    </vehicle>
    <vehicle id="39_78.40" type="car" depart="32666.16">
        <route edges="39_75 75_78"/>
    </vehicle>
    <vehicle id="78_39.48" type="car" depart="32666.21">
        <route edges="78_75 75_39"/>
    </vehicle>
    <vehicle id="78_76.5" type="car" depart="32668.66">
        <route edges="78_75 75_76"/>
    </vehicle>
    <vehicle id="78_39.49" type="car" depart="32671.75">
        <route edges="78_75 75_39"/>
    </vehicle>
    <vehicle id="39_78.41" type="car" depart="32672.81">
        <route edges="39_75 75_78"/>
    </vehicle>
    <vehicle id="78_39.50" type="car" depart="32677.30">
        <route edges="78_75 75_39"/>
    </vehicle>
    <vehicle id="39_78.42" type="car" depart="32679.47">
        <route edges="39_75 75_78"/>
    </vehicle>
    <vehicle id="78_39.51" type="car" depart="32682.85">
        <route edges="78_75 75_39"/>
    </vehicle>
    <vehicle id="39_78.43" type="car" depart="32686.12">
        <route edges="39_75 75_78"/>
    </vehicle>
    <vehicle id="78_39.52" type="car" depart="32688.39">
        <route edges="78_75 75_39"/>
    </vehicle>
    <vehicle id="39_78.44" type="car" depart="32692.78">
        <route edges="39_75 75_78"/>
    </vehicle>
    <vehicle id="78_39.53" type="car" depart="32693.94">
        <route edges="78_75 75_39"/>
    </vehicle>
    <vehicle id="39_78.45" type="car" depart="32699.43">
        <route edges="39_75 75_78"/>
    </vehicle>
    <vehicle id="78_39.54" type="car" depart="32699.48">
        <route edges="78_75 75_39"/>
    </vehicle>
    <vehicle id="78_39.55" type="car" depart="32705.03">
        <route edges="78_75 75_39"/>
    </vehicle>
    <vehicle id="39_78.46" type="car" depart="32706.08">
        <route edges="39_75 75_78"/>
    </vehicle>
    <vehicle id="78_39.56" type="car" depart="32710.58">
        <route edges="78_75 75_39"/>
    </vehicle>
    <vehicle id="39_78.47" type="car" depart="32712.74">
        <route edges="39_75 75_78"/>
    </vehicle>
    <vehicle id="78_39.57" type="car" depart="32716.12">
        <route edges="78_75 75_39"/>
    </vehicle>
    <vehicle id="39_78.48" type="car" depart="32719.39">
        <route edges="39_75 75_78"/>
    </vehicle>
    <vehicle id="78_39.58" type="car" depart="32721.67">
        <route edges="78_75 75_39"/>
    </vehicle>
    <vehicle id="78_76.6" type="car" depart="32722.39">
        <route edges="78_75 75_76"/>
    </vehicle>
    <vehicle id="39_78.49" type="car" depart="32726.05">
        <route edges="39_75 75_78"/>
    </vehicle>
    <vehicle id="78_39.59" type="car" depart="32727.21">
        <route edges="78_75 75_39"/>
    </vehicle>
    <vehicle id="78_77.2" type="car" depart="32727.27">
        <route edges="78_75 75_77"/>
    </vehicle>
    <vehicle id="39_78.50" type="car" depart="32732.70">
        <route edges="39_75 75_78"/>
    </vehicle>
    <vehicle id="78_39.60" type="car" depart="32732.76">
        <route edges="78_75 75_39"/>
    </vehicle>
    <vehicle id="78_39.61" type="car" depart="32738.31">
        <route edges="78_75 75_39"/>
    </vehicle>
    <vehicle id="39_78.51" type="car" depart="32739.35">
        <route edges="39_75 75_78"/>
    </vehicle>
    <vehicle id="78_39.62" type="car" depart="32743.85">
        <route edges="78_75 75_39"/>
    </vehicle>
    <vehicle id="39_78.52" type="car" depart="32746.01">
        <route edges="39_75 75_78"/>
    </vehicle>
    <vehicle id="78_39.63" type="car" depart="32749.40">
        <route edges="78_75 75_39"/>
    </vehicle>
    <vehicle id="39_77.4" type="car" depart="32751.22">
        <route edges="39_75 75_77"/>
    </vehicle>
    <vehicle id="39_78.53" type="car" depart="32752.66">
        <route edges="39_75 75_78"/>
    </vehicle>
    <vehicle id="78_39.64" type="car" depart="32754.94">
        <route edges="78_75 75_39"/>
    </vehicle>
    <vehicle id="39_78.54" type="car" depart="32759.32">
        <route edges="39_75 75_78"/>
    </vehicle>
    <vehicle id="76_78.3" type="car" depart="32760.00">
        <route edges="76_75 75_78"/>
    </vehicle>
    <vehicle id="78_39.65" type="car" depart="32760.49">
        <route edges="78_75 75_39"/>
    </vehicle>
    <vehicle id="39_78.55" type="car" depart="32765.97">
        <route edges="39_75 75_78"/>
    </vehicle>
    <vehicle id="78_39.66" type="car" depart="32766.04">
        <route edges="78_75 75_39"/>
    </vehicle>
    <vehicle id="78_39.67" type="car" depart="32771.58">
        <route edges="78_75 75_39"/>
    </vehicle>
    <vehicle id="39_78.56" type="car" depart="32772.62">
        <route edges="39_75 75_78"/>
    </vehicle>
    <vehicle id="78_76.7" type="car" depart="32776.12">
        <route edges="78_75 75_76"/>
    </vehicle>
    <vehicle id="78_39.68" type="car" depart="32777.13">
        <route edges="78_75 75_39"/>
    </vehicle>
    <vehicle id="39_78.57" type="car" depart="32779.28">
        <route edges="39_75 75_78"/>
    </vehicle>
    <vehicle id="78_39.69" type="car" depart="32782.67">
        <route edges="78_75 75_39"/>
    </vehicle>
    <vehicle id="39_78.58" type="car" depart="32785.93">
        <route edges="39_75 75_78"/>
    </vehicle>
    <vehicle id="78_39.70" type="car" depart="32788.22">
        <route edges="78_75 75_39"/>
    </vehicle>
    <vehicle id="39_78.59" type="car" depart="32792.59">
        <route edges="39_75 75_78"/>
    </vehicle>
    <vehicle id="78_39.71" type="car" depart="32793.77">
        <route edges="78_75 75_39"/>
    </vehicle>
    <vehicle id="39_78.60" type="car" depart="32799.24">
        <route edges="39_75 75_78"/>
    </vehicle>
    <vehicle id="78_39.72" type="car" depart="32799.31">
        <route edges="78_75 75_39"/>
    </vehicle>
    <vehicle id="76_77.2" type="car" depart="32800.00">
        <route edges="76_75 75_77"/>
    </vehicle>
    <vehicle id="78_39.73" type="car" depart="32804.86">
        <route edges="78_75 75_39"/>
    </vehicle>
    <vehicle id="39_78.61" type="car" depart="32805.89">
        <route edges="39_75 75_78"/>
    </vehicle>
    <vehicle id="78_39.74" type="car" depart="32810.40">
        <route edges="78_75 75_39"/>
    </vehicle>
    <vehicle id="39_78.62" type="car" depart="32812.55">
        <route edges="39_75 75_78"/>
    </vehicle>
    <vehicle id="78_39.75" type="car" depart="32815.95">
        <route edges="78_75 75_39"/>
    </vehicle>
    <vehicle id="39_78.63" type="car" depart="32819.20">
        <route edges="39_75 75_78"/>
    </vehicle>
    <vehicle id="78_39.76" type="car" depart="32821.50">
        <route edges="78_75 75_39"/>
    </vehicle>
    <vehicle id="77_78.2" type="car" depart="32823.53">
        <route edges="77_75 75_78"/>
    </vehicle>
    <vehicle id="39_78.64" type="car" depart="32825.86">
        <route edges="39_75 75_78"/>
    </vehicle>
    <vehicle id="78_39.77" type="car" depart="32827.04">
        <route edges="78_75 75_39"/>
    </vehicle>
    <vehicle id="78_76.8" type="car" depart="32829.85">
        <route edges="78_75 75_76"/>
    </vehicle>
    <vehicle id="39_78.65" type="car" depart="32832.51">
        <route edges="39_75 75_78"/>
    </vehicle>
    <vehicle id="78_39.78" type="car" depart="32832.59">
        <route edges="78_75 75_39"/>
    </vehicle>
    <vehicle id="78_39.79" type="car" depart="32838.13">
        <route edges="78_75 75_39"/>
    </vehicle>
    <vehicle id="39_77.5" type="car" depart="32839.02">
        <route edges="39_75 75_77"/>
    </vehicle>
    <vehicle id="39_78.66" type="car" depart="32839.16">
        <route edges="39_75 75_78"/>
    </vehicle>
    <vehicle id="78_39.80" type="car" depart="32843.68">
        <route edges="78_75 75_39"/>
    </vehicle>
    <vehicle id="39_78.67" type="car" depart="32845.82">
        <route edges="39_75 75_78"/>
    </vehicle>
    <vehicle id="78_39.81" type="car" depart="32849.23">
        <route edges="78_75 75_39"/>
    </vehicle>
    <vehicle id="39_78.68" type="car" depart="32852.47">
        <route edges="39_75 75_78"/>
    </vehicle>
    <vehicle id="78_39.82" type="car" depart="32854.77">
        <route edges="78_75 75_39"/>
    </vehicle>
    <vehicle id="39_78.69" type="car" depart="32859.13">
        <route edges="39_75 75_78"/>
    </vehicle>
    <vehicle id="78_39.83" type="car" depart="32860.32">
        <route edges="78_75 75_39"/>
    </vehicle>
    <vehicle id="39_78.70" type="car" depart="32865.78">
        <route edges="39_75 75_78"/>
    </vehicle>
    <vehicle id="78_39.84" type="car" depart="32865.86">
        <route edges="78_75 75_39"/>
    </vehicle>
    <vehicle id="78_39.85" type="car" depart="32871.41">
        <route edges="78_75 75_39"/>
    </vehicle>
    <vehicle id="39_78.71" type="car" depart="32872.43">
        <route edges="39_75 75_78"/>
    </vehicle>
    <vehicle id="78_39.86" type="car" depart="32876.96">
        <route edges="78_75 75_39"/>
    </vehicle>
    <vehicle id="39_78.72" type="car" depart="32879.09">
        <route edges="39_75 75_78"/>
    </vehicle>
    <vehicle id="76_78.4" type="car" depart="32880.00">
        <route edges="76_75 75_78"/>
    </vehicle>
    <vehicle id="78_39.87" type="car" depart="32882.50">
        <route edges="78_75 75_39"/>
    </vehicle>
    <vehicle id="78_76.9" type="car" depart="32883.58">
        <route edges="78_75 75_76"/>
    </vehicle>
    <vehicle id="39_78.73" type="car" depart="32885.74">
        <route edges="39_75 75_78"/>
    </vehicle>
    <vehicle id="78_39.88" type="car" depart="32888.05">
        <route edges="78_75 75_39"/>
    </vehicle>
    <vehicle id="78_77.3" type="car" depart="32890.91">
        <route edges="78_75 75_77"/>
    </vehicle>
    <vehicle id="39_78.74" type="car" depart="32892.40">
        <route edges="39_75 75_78"/>
    </vehicle>
    <vehicle id="78_39.89" type="car" depart="32893.59">
        <route edges="78_75 75_39"/>
    </vehicle>
    <vehicle id="39_78.75" type="car" depart="32899.05">
        <route edges="39_75 75_78"/>
    </vehicle>
    <vehicle id="78_39.90" type="car" depart="32899.14">
        <route edges="78_75 75_39"/>
    </vehicle>
    <vehicle id="78_39.91" type="car" depart="32904.69">
        <route edges="78_75 75_39"/>
    </vehicle>
    <vehicle id="39_78.76" type="car" depart="32905.70">
        <route edges="39_75 75_78"/>
    </vehicle>
    <vehicle id="78_39.92" type="car" depart="32910.23">
        <route edges="78_75 75_39"/>
    </vehicle>
    <vehicle id="39_78.77" type="car" depart="32912.36">
        <route edges="39_75 75_78"/>
    </vehicle>
    <vehicle id="77_39.2" type="car" depart="32914.28">
        <route edges="77_75 75_39"/>
    </vehicle>
    <vehicle id="77_76.2" type="car" depart="32914.28">
        <route edges="77_75 75_76"/>
    </vehicle>
    <vehicle id="78_39.93" type="car" depart="32915.78">
        <route edges="78_75 75_39"/>
    </vehicle>
    <vehicle id="39_78.78" type="car" depart="32919.01">
        <route edges="39_75 75_78"/>
    </vehicle>
    <vehicle id="78_39.94" type="car" depart="32921.32">
        <route edges="78_75 75_39"/>
    </vehicle>
    <vehicle id="39_78.79" type="car" depart="32925.67">
        <route edges="39_75 75_78"/>
    </vehicle>
    <vehicle id="39_77.6" type="car" depart="32926.82">
        <route edges="39_75 75_77"/>
    </vehicle>
    <vehicle id="78_39.95" type="car" depart="32926.87">
        <route edges="78_75 75_39"/>
    </vehicle>
    <vehicle id="39_78.80" type="car" depart="32932.32">
        <route edges="39_75 75_78"/>
    </vehicle>
    <vehicle id="78_39.96" type="car" depart="32932.42">
        <route edges="78_75 75_39"/>
    </vehicle>
    <vehicle id="78_76.10" type="car" depart="32937.31">
        <route edges="78_75 75_76"/>
    </vehicle>
    <vehicle id="78_39.97" type="car" depart="32937.96">
        <route edges="78_75 75_39"/>
    </vehicle>
    <vehicle id="39_78.81" type="car" depart="32938.97">
        <route edges="39_75 75_78"/>
    </vehicle>
    <vehicle id="78_39.98" type="car" depart="32943.51">
        <route edges="78_75 75_39"/>
    </vehicle>
    <vehicle id="39_78.82" type="car" depart="32945.63">
        <route edges="39_75 75_78"/>
    </vehicle>
    <vehicle id="78_39.99" type="car" depart="32949.05">
        <route edges="78_75 75_39"/>
    </vehicle>
    <vehicle id="39_78.83" type="car" depart="32952.28">
        <route edges="39_75 75_78"/>
    </vehicle>
    <vehicle id="78_39.100" type="car" depart="32954.60">
        <route edges="78_75 75_39"/>
    </vehicle>
    <vehicle id="39_78.84" type="car" depart="32958.94">
        <route edges="39_75 75_78"/>
    </vehicle>
    <vehicle id="78_39.101" type="car" depart="32960.15">
        <route edges="78_75 75_39"/>
    </vehicle>
    <vehicle id="39_78.85" type="car" depart="32965.59">
        <route edges="39_75 75_78"/>
    </vehicle>
    <vehicle id="78_39.102" type="car" depart="32965.69">
        <route edges="78_75 75_39"/>
    </vehicle>
    <vehicle id="78_39.103" type="car" depart="32971.24">
        <route edges="78_75 75_39"/>
    </vehicle>
    <vehicle id="39_78.86" type="car" depart="32972.24">
        <route edges="39_75 75_78"/>
    </vehicle>
    <vehicle id="78_39.104" type="car" depart="32976.78">
        <route edges="78_75 75_39"/>
    </vehicle>
    <vehicle id="39_78.87" type="car" depart="32978.90">
        <route edges="39_75 75_78"/>
    </vehicle>
    <vehicle id="78_39.105" type="car" depart="32982.33">
        <route edges="78_75 75_39"/>
    </vehicle>
    <vehicle id="39_78.88" type="car" depart="32985.55">
        <route edges="39_75 75_78"/>
    </vehicle>
    <vehicle id="78_39.106" type="car" depart="32987.88">
        <route edges="78_75 75_39"/>
    </vehicle>
    <vehicle id="78_76.11" type="car" depart="32991.04">
        <route edges="78_75 75_76"/>
    </vehicle>
    <vehicle id="39_78.89" type="car" depart="32992.21">
        <route edges="39_75 75_78"/>
    </vehicle>
    <vehicle id="78_39.107" type="car" depart="32993.42">
        <route edges="78_75 75_39"/>
    </vehicle>
    <vehicle id="39_78.90" type="car" depart="32998.86">
        <route edges="39_75 75_78"/>
    </vehicle>
    <vehicle id="78_39.108" type="car" depart="32998.97">
        <route edges="78_75 75_39"/>
    </vehicle>
    <vehicle id="76_77.3" type="car" depart="33000.00">
        <route edges="76_75 75_77"/>
    </vehicle>
    <vehicle id="76_78.5" type="car" depart="33000.00">
        <route edges="76_75 75_78"/>
    </vehicle>
    <vehicle id="78_39.109" type="car" depart="33004.51">
        <route edges="78_75 75_39"/>
    </vehicle>
    <vehicle id="39_78.91" type="car" depart="33005.51">
        <route edges="39_75 75_78"/>
    </vehicle>
    <vehicle id="78_39.110" type="car" depart="33010.06">
        <route edges="78_75 75_39"/>
    </vehicle>
    <vehicle id="39_78.92" type="car" depart="33012.17">
        <route edges="39_75 75_78"/>
    </vehicle>
    <vehicle id="39_77.7" type="car" depart="33014.63">
        <route edges="39_75 75_77"/>
    </vehicle>
    <vehicle id="78_39.111" type="car" depart="33015.61">
        <route edges="78_75 75_39"/>
    </vehicle>
    <vehicle id="39_78.93" type="car" depart="33018.82">
        <route edges="39_75 75_78"/>
    </vehicle>
    <vehicle id="78_39.112" type="car" depart="33021.15">
        <route edges="78_75 75_39"/>
    </vehicle>
    <vehicle id="39_78.94" type="car" depart="33025.48">
        <route edges="39_75 75_78"/>
    </vehicle>
    <vehicle id="78_39.113" type="car" depart="33026.70">
        <route edges="78_75 75_39"/>
    </vehicle>
    <vehicle id="39_78.95" type="car" depart="33032.13">
        <route edges="39_75 75_78"/>
    </vehicle>
    <vehicle id="78_39.114" type="car" depart="33032.24">
        <route edges="78_75 75_39"/>
    </vehicle>
    <vehicle id="77_78.3" type="car" depart="33035.29">
        <route edges="77_75 75_78"/>
    </vehicle>
    <vehicle id="78_39.115" type="car" depart="33037.79">
        <route edges="78_75 75_39"/>
    </vehicle>
    <vehicle id="39_78.96" type="car" depart="33038.78">
        <route edges="39_75 75_78"/>
    </vehicle>
    <vehicle id="78_39.116" type="car" depart="33043.34">
        <route edges="78_75 75_39"/>
    </vehicle>
    <vehicle id="78_76.12" type="car" depart="33044.77">
        <route edges="78_75 75_76"/>
    </vehicle>
    <vehicle id="39_78.97" type="car" depart="33045.44">
        <route edges="39_75 75_78"/>
    </vehicle>
    <vehicle id="78_39.117" type="car" depart="33048.88">
        <route edges="78_75 75_39"/>
    </vehicle>
    <vehicle id="39_78.98" type="car" depart="33052.09">
        <route edges="39_75 75_78"/>
    </vehicle>
    <vehicle id="78_39.118" type="car" depart="33054.43">
        <route edges="78_75 75_39"/>
    </vehicle>
    <vehicle id="78_77.4" type="car" depart="33054.54">
        <route edges="78_75 75_77"/>
    </vehicle>
    <vehicle id="39_78.99" type="car" depart="33058.75">
        <route edges="39_75 75_78"/>
    </vehicle>