<?xml version="1.0" encoding="UTF-8"?>

<configuration>
    <input>
        <net-file value="bullhead_1.net.xml"/>
        <route-files value="bullhead_1.rou.xml"/>
        <additional-files value="default.add.xml"/>
    </input>
    <time>
        <begin value="32400"/>
        <end value="36000"/>
        <step-length value="1"/>
    </time>
</configuration>
