<?xml version="1.0" encoding="UTF-8"?>

<configuration>
    <input>
        <net-file value="tempe_i744.net.xml"/>
        <route-files value="tempe_i744.rou.xml"/>
    </input>
    <time>
        <begin value="27000"/>
        <end value="34200"/>
        <step-length value="1"/>
    </time>

</configuration>
