<?xml version="1.0" encoding="UTF-8"?>

<!-- generated on 2025-10-09 20:41:18.490930 by cutRoutes.py UNKNOWN
<configuration>
    <min-length value="2"/>
    <routes-output value="/home/red/tempe/i744/tempe_i744.rou.xml"/>
    <orig-net value="/home/red/tempe/tempe.net.xml"/>
    <big value="True"/>
    <network value="/home/red/tempe/i744/tempe_i744.net.xml"/>
    <routeFiles value="/home/red/tempe/tempe.rou.xml"/>
</configuration>
-->

<routes xmlns:xsi="http://www.w3.org/2001/XMLSchema-instance" xsi:noNamespaceSchemaLocation="http://sumo.dlr.de/xsd/routes_file.xsd">
    <vType id="car" accel="2.6" decel="4.5" maxSpeed="13.39" minGap="2.5" tau="1.5"/>
    <vehicle id="118_152.0" type="car" depart="27000.00">
        <route edges="118_744 744_152"/>
    </vehicle>
    <vehicle id="118_495.0" type="car" depart="27000.00">
        <route edges="118_744 744_495"/>
    </vehicle>
    <vehicle id="118_77.0" type="car" depart="27000.00">
        <route edges="118_744 744_77"/>
    </vehicle>
    <vehicle id="152_118.0" type="car" depart="27000.00">
        <route edges="152_744 744_118"/>
    </vehicle>
    <vehicle id="152_495.0" type="car" depart="27000.00">
        <route edges="152_744 744_495"/>
    </vehicle>
    <vehicle id="152_77.0" type="car" depart="27000.00">
        <route edges="152_744 744_77"/>
    </vehicle>
    <vehicle id="495_118.0" type="car" depart="27000.00">
        <route edges="495_744 744_118"/>
    </vehicle>
    <vehicle id="495_77.0" type="car" depart="27000.00">
        <route edges="495_744 744_77"/>
    </vehicle>
    <vehicle id="77_118.0" type="car" depart="27000.00">
        <route edges="77_744 744_118"/>
    </vehicle>
    <vehicle id="77_152.0" type="car" depart="27000.00">
        <route edges="77_744 744_152"/>
    </vehicle>
    <vehicle id="77_152.1" type="car" depart="27004.14">
        <route edges="77_744 744_152"/>
    </vehicle>
    <vehicle id="152_77.1" type="car" depart="27004.57">
        <route edges="152_744 744_77"/>
    </vehicle>
    <vehicle id="495_118.1" type="car" depart="27007.86">
        <route edges="495_744 744_118"/>
    </vehicle>
    <vehicle id="77_152.2" type="car" depart="27008.27">
        <route edges="77_744 744_152"/>
    </vehicle>
    <vehicle id="152_77.2" type="car" depart="27009.14">
        <route edges="152_744 744_77"/>
    </vehicle>
    <vehicle id="152_118.1" type="car" depart="27012.12">
        <route edges="152_744 744_118"/>
    </vehicle>
    <vehicle id="77_152.3" type="car" depart="27012.41">
        <route edges="77_744 744_152"/>
    </vehicle>
    <vehicle id="152_77.3" type="car" depart="27013.71">
        <route edges="152_744 744_77"/>
    </vehicle>
    <vehicle id="495_118.2" type="car" depart="27015.72">
        <route edges="495_744 744_118"/>
    </vehicle>
    <vehicle id="77_152.4" type="car" depart="27016.54">
        <route edges="77_744 744_152"/>
    </vehicle>
    <vehicle id="495_77.1" type="car" depart="27018.18">
        <route edges="495_744 744_77"/>
    </vehicle>
    <vehicle id="152_77.4" type="car" depart="27018.28">
        <route edges="152_744 744_77"/>
    </vehicle>
    <vehicle id="118_152.1" type="car" depart="27020.17">
        <route edges="118_744 744_152"/>
    </vehicle>
    <vehicle id="77_152.5" type="car" depart="27020.68">
        <route edges="77_744 744_152"/>
    </vehicle>
    <vehicle id="152_77.5" type="car" depart="27022.86">
        <route edges="152_744 744_77"/>
    </vehicle>
    <vehicle id="495_118.3" type="car" depart="27023.58">
        <route edges="495_744 744_118"/>
    </vehicle>
    <vehicle id="118_495.1" type="car" depart="27024.00">
        <route edges="118_744 744_495"/>
    </vehicle>
    <vehicle id="152_118.2" type="car" depart="27024.24">
        <route edges="152_744 744_118"/>
    </vehicle>
    <vehicle id="77_152.6" type="car" depart="27024.81">
        <route edges="77_744 744_152"/>
    </vehicle>
    <vehicle id="152_77.6" type="car" depart="27027.43">
        <route edges="152_744 744_77"/>
    </vehicle>
    <vehicle id="77_152.7" type="car" depart="27028.95">
        <route edges="77_744 744_152"/>
    </vehicle>
    <vehicle id="77_118.1" type="car" depart="27030.64">
        <route edges="77_744 744_118"/>
    </vehicle>
    <vehicle id="495_118.4" type="car" depart="27031.44">
        <route edges="495_744 744_118"/>
    </vehicle>
    <vehicle id="152_77.7" type="car" depart="27032.00">
        <route edges="152_744 744_77"/>
    </vehicle>
    <vehicle id="77_152.8" type="car" depart="27033.08">
        <route edges="77_744 744_152"/>
    </vehicle>
    <vehicle id="495_77.2" type="car" depart="27036.36">
        <route edges="495_744 744_77"/>
    </vehicle>
    <vehicle id="152_118.3" type="car" depart="27036.36">
        <route edges="152_744 744_118"/>
    </vehicle>
    <vehicle id="152_77.8" type="car" depart="27036.57">
        <route edges="152_744 744_77"/>
    </vehicle>
    <vehicle id="77_152.9" type="car" depart="27037.22">
        <route edges="77_744 744_152"/>
    </vehicle>
    <vehicle id="495_118.5" type="car" depart="27039.30">
        <route edges="495_744 744_118"/>
    </vehicle>
    <vehicle id="118_152.2" type="car" depart="27040.34">
        <route edges="118_744 744_152"/>
    </vehicle>
    <vehicle id="152_77.9" type="car" depart="27041.14">
        <route edges="152_744 744_77"/>
    </vehicle>
    <vehicle id="77_152.10" type="car" depart="27041.35">
        <route edges="77_744 744_152"/>
    </vehicle>
    <vehicle id="77_152.11" type="car" depart="27045.49">
        <route edges="77_744 744_152"/>
    </vehicle>
    <vehicle id="152_77.10" type="car" depart="27045.71">
        <route edges="152_744 744_77"/>
    </vehicle>
    <vehicle id="495_118.6" type="car" depart="27047.16">
        <route edges="495_744 744_118"/>
    </vehicle>
    <vehicle id="118_495.2" type="car" depart="27048.00">
        <route edges="118_744 744_495"/>
    </vehicle>
    <vehicle id="152_118.4" type="car" depart="27048.48">
        <route edges="152_744 744_118"/>
    </vehicle>
    <vehicle id="77_152.12" type="car" depart="27049.62">
        <route edges="77_744 744_152"/>
    </vehicle>
    <vehicle id="152_77.11" type="car" depart="27050.28">
        <route edges="152_744 744_77"/>
    </vehicle>
    <vehicle id="77_152.13" type="car" depart="27053.76">
        <route edges="77_744 744_152"/>
    </vehicle>
    <vehicle id="495_77.3" type="car" depart="27054.54">
        <route edges="495_744 744_77"/>
    </vehicle>
    <vehicle id="152_77.12" type="car" depart="27054.85">
        <route edges="152_744 744_77"/>
    </vehicle>
    <vehicle id="495_118.7" type="car" depart="27055.02">
        <route edges="495_744 744_118"/>
    </vehicle>
    <vehicle id="77_152.14" type="car" depart="27057.89">
        <route edges="77_744 744_152"/>
    </vehicle>
    <vehicle id="152_77.13" type="car" depart="27059.42">
        <route edges="152_744 744_77"/>
    </vehicle>
    <vehicle id="118_152.3" type="car" depart="27060.50">
        <route edges="118_744 744_152"/>
    </vehicle>
    <vehicle id="152_118.5" type="car" depart="27060.61">
        <route edges="152_744 744_118"/>
    </vehicle>
    <vehicle id="77_118.2" type="car" depart="27061.28">
        <route edges="77_744 744_118"/>
    </vehicle>
    <vehicle id="77_152.15" type="car" depart="27062.03">
        <route edges="77_744 744_152"/>
    </vehicle>
    <vehicle id="495_118.8" type="car" depart="27062.88">
        <route edges="495_744 744_118"/>
    </vehicle>
    <vehicle id="152_77.14" type="car" depart="27063.99">
        <route edges="152_744 744_77"/>
    </vehicle>
    <vehicle id="152_495.1" type="car" depart="27064.86">
        <route edges="152_744 744_495"/>
    </vehicle>
    <vehicle id="77_152.16" type="car" depart="27066.16">
        <route edges="77_744 744_152"/>
    </vehicle>
    <vehicle id="152_77.15" type="car" depart="27068.57">
        <route edges="152_744 744_77"/>
    </vehicle>
    <vehicle id="77_152.17" type="car" depart="27070.30">
        <route edges="77_744 744_152"/>
    </vehicle>
    <vehicle id="495_118.9" type="car" depart="27070.74">
        <route edges="495_744 744_118"/>
    </vehicle>
    <vehicle id="118_495.3" type="car" depart="27072.00">
        <route edges="118_744 744_495"/>
    </vehicle>
    <vehicle id="495_77.4" type="car" depart="27072.72">
        <route edges="495_744 744_77"/>
    </vehicle>
    <vehicle id="152_118.6" type="car" depart="27072.73">
        <route edges="152_744 744_118"/>
    </vehicle>
    <vehicle id="152_77.16" type="car" depart="27073.14">
        <route edges="152_744 744_77"/>
    </vehicle>
    <vehicle id="77_152.18" type="car" depart="27074.43">
        <route edges="77_744 744_152"/>
    </vehicle>
    <vehicle id="152_77.17" type="car" depart="27077.71">
        <route edges="152_744 744_77"/>
    </vehicle>
    <vehicle id="77_152.19" type="car" depart="27078.57">
        <route edges="77_744 744_152"/>
    </vehicle>
    <vehicle id="495_118.10" type="car" depart="27078.60">
        <route edges="495_744 744_118"/>
    </vehicle>
    <vehicle id="118_152.4" type="car" depart="27080.67">
        <route edges="118_744 744_152"/>
    </vehicle>
    <vehicle id="118_77.1" type="car" depart="27081.82">
        <route edges="118_744 744_77"/>
    </vehicle>
    <vehicle id="152_77.18" type="car" depart="27082.28">
        <route edges="152_744 744_77"/>
    </vehicle>
    <vehicle id="77_152.20" type="car" depart="27082.70">
        <route edges="77_744 744_152"/>
    </vehicle>
    <vehicle id="152_118.7" type="car" depart="27084.85">
        <route edges="152_744 744_118"/>
    </vehicle>
    <vehicle id="495_118.11" type="car" depart="27086.46">
        <route edges="495_744 744_118"/>
    </vehicle>
    <vehicle id="77_152.21" type="car" depart="27086.84">
        <route edges="77_744 744_152"/>
    </vehicle>
    <vehicle id="152_77.19" type="car" depart="27086.85">
        <route edges="152_744 744_77"/>
    </vehicle>
    <vehicle id="495_77.5" type="car" depart="27090.91">
        <route edges="495_744 744_77"/>
    </vehicle>
    <vehicle id="77_152.22" type="car" depart="27090.97">
        <route edges="77_744 744_152"/>
    </vehicle>
    <vehicle id="152_77.20" type="car" depart="27091.42">
        <route edges="152_744 744_77"/>
    </vehicle>
    <vehicle id="77_118.3" type="car" depart="27091.91">
        <route edges="77_744 744_118"/>
    </vehicle>
    <vehicle id="495_118.12" type="car" depart="27094.32">
        <route edges="495_744 744_118"/>
    </vehicle>
    <vehicle id="77_152.23" type="car" depart="27095.11">
        <route edges="77_744 744_152"/>
    </vehicle>
    <vehicle id="152_77.21" type="car" depart="27095.99">
        <route edges="152_744 744_77"/>
    </vehicle>
    <vehicle id="118_495.4" type="car" depart="27096.00">
        <route edges="118_744 744_495"/>
    </vehicle>
    <vehicle id="152_118.8" type="car" depart="27096.97">
        <route edges="152_744 744_118"/>
    </vehicle>
    <vehicle id="77_152.24" type="car" depart="27099.24">
        <route edges="77_744 744_152"/>
    </vehicle>
    <vehicle id="152_77.22" type="car" depart="27100.56">
        <route edges="152_744 744_77"/>
    </vehicle>
    <vehicle id="118_152.5" type="car" depart="27100.84">
        <route edges="118_744 744_152"/>
    </vehicle>
    <vehicle id="495_118.13" type="car" depart="27102.18">
        <route edges="495_744 744_118"/>
    </vehicle>
    <vehicle id="77_152.25" type="car" depart="27103.38">
        <route edges="77_744 744_152"/>
    </vehicle>
    <vehicle id="152_77.23" type="car" depart="27105.13">
        <route edges="152_744 744_77"/>
    </vehicle>
    <vehicle id="77_152.26" type="car" depart="27107.51">
        <route edges="77_744 744_152"/>
    </vehicle>
    <vehicle id="495_77.6" type="car" depart="27109.09">
        <route edges="495_744 744_77"/>
    </vehicle>
    <vehicle id="152_118.9" type="car" depart="27109.09">
        <route edges="152_744 744_118"/>
    </vehicle>
    <vehicle id="152_77.24" type="car" depart="27109.70">
        <route edges="152_744 744_77"/>
    </vehicle>
    <vehicle id="495_118.14" type="car" depart="27110.04">
        <route edges="495_744 744_118"/>
    </vehicle>
    <vehicle id="77_152.27" type="car" depart="27111.65">
        <route edges="77_744 744_152"/>
    </vehicle>
    <vehicle id="152_77.25" type="car" depart="27114.28">
        <route edges="152_744 744_77"/>
    </vehicle>
    <vehicle id="77_152.28" type="car" depart="27115.78">
        <route edges="77_744 744_152"/>
    </vehicle>
    <vehicle id="495_118.15" type="car" depart="27117.90">
        <route edges="495_744 744_118"/>
    </vehicle>
    <vehicle id="152_77.26" type="car" depart="27118.85">
        <route edges="152_744 744_77"/>
    </vehicle>
    <vehicle id="77_152.29" type="car" depart="27119.92">
        <route edges="77_744 744_152"/>
    </vehicle>
    <vehicle id="118_495.5" type="car" depart="27120.00">
        <route edges="118_744 744_495"/>
    </vehicle>
    <vehicle id="118_152.6" type="car" depart="27121.01">
        <route edges="118_744 744_152"/>
    </vehicle>
    <vehicle id="152_118.10" type="car" depart="27121.21">
        <route edges="152_744 744_118"/>
    </vehicle>
    <vehicle id="77_118.4" type="car" depart="27122.55">
        <route edges="77_744 744_118"/>
    </vehicle>
    <vehicle id="152_77.27" type="car" depart="27123.42">
        <route edges="152_744 744_77"/>
    </vehicle>
    <vehicle id="77_152.30" type="car" depart="27124.05">
        <route edges="77_744 744_152"/>
    </vehicle>
    <vehicle id="495_118.16" type="car" depart="27125.76">
        <route edges="495_744 744_118"/>
    </vehicle>
    <vehicle id="495_77.7" type="car" depart="27127.27">
        <route edges="495_744 744_77"/>
    </vehicle>
    <vehicle id="152_77.28" type="car" depart="27127.99">
        <route edges="152_744 744_77"/>
    </vehicle>
    <vehicle id="77_152.31" type="car" depart="27128.19">
        <route edges="77_744 744_152"/>
    </vehicle>
    <vehicle id="152_495.2" type="car" depart="27129.73">
        <route edges="152_744 744_495"/>
    </vehicle>
    <vehicle id="77_152.32" type="car" depart="27132.32">
        <route edges="77_744 744_152"/>
    </vehicle>
    <vehicle id="152_77.29" type="car" depart="27132.56">
        <route edges="152_744 744_77"/>
    </vehicle>
    <vehicle id="152_118.11" type="car" depart="27133.33">
        <route edges="152_744 744_118"/>
    </vehicle>
    <vehicle id="495_118.17" type="car" depart="27133.62">
        <route edges="495_744 744_118"/>
    </vehicle>
    <vehicle id="77_152.33" type="car" depart="27136.46">
        <route edges="77_744 744_152"/>
    </vehicle>
    <vehicle id="152_77.30" type="car" depart="27137.13">
        <route edges="152_744 744_77"/>
    </vehicle>
    <vehicle id="77_152.34" type="car" depart="27140.59">
        <route edges="77_744 744_152"/>
    </vehicle>
    <vehicle id="118_152.7" type="car" depart="27141.18">
        <route edges="118_744 744_152"/>
    </vehicle>
    <vehicle id="495_118.18" type="car" depart="27141.48">
        <route edges="495_744 744_118"/>
    </vehicle>
    <vehicle id="152_77.31" type="car" depart="27141.70">
        <route edges="152_744 744_77"/>
    </vehicle>
    <vehicle id="118_495.6" type="car" depart="27144.00">
        <route edges="118_744 744_495"/>
    </vehicle>
    <vehicle id="77_152.35" type="car" depart="27144.73">
        <route edges="77_744 744_152"/>
    </vehicle>
    <vehicle id="495_77.8" type="car" depart="27145.45">
        <route edges="495_744 744_77"/>
    </vehicle>
    <vehicle id="152_118.12" type="car" depart="27145.45">
        <route edges="152_744 744_118"/>
    </vehicle>
    <vehicle id="152_77.32" type="car" depart="27146.27">
        <route edges="152_744 744_77"/>
    </vehicle>
    <vehicle id="77_152.36" type="car" depart="27148.86">
        <route edges="77_744 744_152"/>
    </vehicle>
    <vehicle id="495_118.19" type="car" depart="27149.34">
        <route edges="495_744 744_118"/>
    </vehicle>
    <vehicle id="152_77.33" type="car" depart="27150.84">
        <route edges="152_744 744_77"/>
    </vehicle>
    <vehicle id="77_152.37" type="car" depart="27153.00">
        <route edges="77_744 744_152"/>
    </vehicle>
    <vehicle id="77_118.5" type="car" depart="27153.19">
        <route edges="77_744 744_118"/>
    </vehicle>
    <vehicle id="152_77.34" type="car" depart="27155.41">
        <route edges="152_744 744_77"/>
    </vehicle>
    <vehicle id="77_152.38" type="car" depart="27157.13">
        <route edges="77_744 744_152"/>
    </vehicle>
    <vehicle id="495_118.20" type="car" depart="27157.20">
        <route edges="495_744 744_118"/>
    </vehicle>
    <vehicle id="152_118.13" type="car" depart="27157.57">
        <route edges="152_744 744_118"/>
    </vehicle>
    <vehicle id="152_77.35" type="car" depart="27159.99">
        <route edges="152_744 744_77"/>
    </vehicle>
    <vehicle id="77_152.39" type="car" depart="27161.27">
        <route edges="77_744 744_152"/>
    </vehicle>
    <vehicle id="118_152.8" type="car" depart="27161.34">
        <route edges="118_744 744_152"/>
    </vehicle>
    <vehicle id="495_77.9" type="car" depart="27163.63">
        <route edges="495_744 744_77"/>
    </vehicle>
    <vehicle id="118_77.2" type="car" depart="27163.64">
        <route edges="118_744 744_77"/>
    </vehicle>
    <vehicle id="152_77.36" type="car" depart="27164.56">
        <route edges="152_744 744_77"/>
    </vehicle>
    <vehicle id="495_118.21" type="car" depart="27165.06">
        <route edges="495_744 744_118"/>
    </vehicle>
    <vehicle id="77_152.40" type="car" depart="27165.40">
        <route edges="77_744 744_152"/>
    </vehicle>
    <vehicle id="118_495.7" type="car" depart="27168.00">
        <route edges="118_744 744_495"/>
    </vehicle>
    <vehicle id="152_77.37" type="car" depart="27169.13">
        <route edges="152_744 744_77"/>
    </vehicle>
    <vehicle id="77_152.41" type="car" depart="27169.54">
        <route edges="77_744 744_152"/>
    </vehicle>
    <vehicle id="152_118.14" type="car" depart="27169.69">
        <route edges="152_744 744_118"/>
    </vehicle>
    <vehicle id="495_118.22" type="car" depart="27172.92">
        <route edges="495_744 744_118"/>
    </vehicle>
    <vehicle id="77_152.42" type="car" depart="27173.67">
        <route edges="77_744 744_152"/>
    </vehicle>
    <vehicle id="152_77.38" type="car" depart="27173.70">
        <route edges="152_744 744_77"/>
    </vehicle>
    <vehicle id="77_152.43" type="car" depart="27177.81">
        <route edges="77_744 744_152"/>
    </vehicle>
    <vehicle id="152_77.39" type="car" depart="27178.27">
        <route edges="152_744 744_77"/>
    </vehicle>
    <vehicle id="495_118.23" type="car" depart="27180.78">
        <route edges="495_744 744_118"/>
    </vehicle>
    <vehicle id="118_152.9" type="car" depart="27181.51">
        <route edges="118_744 744_152"/>
    </vehicle>
    <vehicle id="495_77.10" type="car" depart="27181.81">
        <route edges="495_744 744_77"/>
    </vehicle>
    <vehicle id="152_118.15" type="car" depart="27181.82">
        <route edges="152_744 744_118"/>
    </vehicle>
    <vehicle id="77_152.44" type="car" depart="27181.94">
        <route edges="77_744 744_152"/>
    </vehicle>
    <vehicle id="152_77.40" type="car" depart="27182.84">
        <route edges="152_744 744_77"/>
    </vehicle>
    <vehicle id="77_118.6" type="car" depart="27183.83">
        <route edges="77_744 744_118"/>
    </vehicle>
    <vehicle id="77_152.45" type="car" depart="27186.08">
        <route edges="77_744 744_152"/>
    </vehicle>
    <vehicle id="152_77.41" type="car" depart="27187.41">
        <route edges="152_744 744_77"/>
    </vehicle>
    <vehicle id="495_118.24" type="car" depart="27188.64">
        <route edges="495_744 744_118"/>
    </vehicle>
    <vehicle id="77_152.46" type="car" depart="27190.21">
        <route edges="77_744 744_152"/>
    </vehicle>
    <vehicle id="152_77.42" type="car" depart="27191.98">
        <route edges="152_744 744_77"/>
    </vehicle>
    <vehicle id="118_495.8" type="car" depart="27192.00">
        <route edges="118_744 744_495"/>
    </vehicle>
    <vehicle id="152_118.16" type="car" depart="27193.94">
        <route edges="152_744 744_118"/>
    </vehicle>
    <vehicle id="77_152.47" type="car" depart="27194.35">
        <route edges="77_744 744_152"/>
    </vehicle>
    <vehicle id="152_495.3" type="car" depart="27194.59">
        <route edges="152_744 744_495"/>
    </vehicle>
    <vehicle id="495_118.25" type="car" depart="27196.50">
        <route edges="495_744 744_118"/>
    </vehicle>
    <vehicle id="152_77.43" type="car" depart="27196.55">
        <route edges="152_744 744_77"/>
    </vehicle>
    <vehicle id="77_152.48" type="car" depart="27198.48">
        <route edges="77_744 744_152"/>
    </vehicle>
    <vehicle id="495_77.11" type="car" depart="27199.99">
        <route edges="495_744 744_77"/>
    </vehicle>
    <vehicle id="152_77.44" type="car" depart="27201.12">
        <route edges="152_744 744_77"/>
    </vehicle>
    <vehicle id="118_152.10" type="car" depart="27201.68">
        <route edges="118_744 744_152"/>
    </vehicle>
    <vehicle id="77_152.49" type="car" depart="27202.62">
        <route edges="77_744 744_152"/>
    </vehicle>
    <vehicle id="495_118.26" type="car" depart="27204.36">
        <route edges="495_744 744_118"/>
    </vehicle>
    <vehicle id="152_77.45" type="car" depart="27205.70">
        <route edges="152_744 744_77"/>
    </vehicle>
    <vehicle id="152_118.17" type="car" depart="27206.06">
        <route edges="152_744 744_118"/>
    </vehicle>
    <vehicle id="77_152.50" type="car" depart="27206.75">
        <route edges="77_744 744_152"/>
    </vehicle>
    <vehicle id="152_77.46" type="car" depart="27210.27">
        <route edges="152_744 744_77"/>
    </vehicle>
    <vehicle id="77_152.51" type="car" depart="27210.89">
        <route edges="77_744 744_152"/>
    </vehicle>
    <vehicle id="495_118.27" type="car" depart="27212.22">
        <route edges="495_744 744_118"/>
    </vehicle>
    <vehicle id="77_118.7" type="car" depart="27214.47">
        <route edges="77_744 744_118"/>
    </vehicle>
    <vehicle id="152_77.47" type="car" depart="27214.84">
        <route edges="152_744 744_77"/>
    </vehicle>
    <vehicle id="77_152.52" type="car" depart="27215.02">
        <route edges="77_744 744_152"/>
    </vehicle>
    <vehicle id="118_495.9" type="car" depart="27216.00">
        <route edges="118_744 744_495"/>
    </vehicle>
    <vehicle id="495_77.12" type="car" depart="27218.17">
        <route edges="495_744 744_77"/>
    </vehicle>
    <vehicle id="152_118.18" type="car" depart="27218.18">
        <route edges="152_744 744_118"/>
    </vehicle>
    <vehicle id="77_152.53" type="car" depart="27219.16">
        <route edges="77_744 744_152"/>
    </vehicle>
    <vehicle id="152_77.48" type="car" depart="27219.41">
        <route edges="152_744 744_77"/>
    </vehicle>
    <vehicle id="495_118.28" type="car" depart="27220.08">
        <route edges="495_744 744_118"/>
    </vehicle>
    <vehicle id="118_152.11" type="car" depart="27221.85">
        <route edges="118_744 744_152"/>
    </vehicle>
    <vehicle id="77_152.54" type="car" depart="27223.29">
        <route edges="77_744 744_152"/>
    </vehicle>
    <vehicle id="152_77.49" type="car" depart="27223.98">
        <route edges="152_744 744_77"/>
    </vehicle>
    <vehicle id="77_152.55" type="car" depart="27227.43">
        <route edges="77_744 744_152"/>
    </vehicle>
    <vehicle id="495_118.29" type="car" depart="27227.94">
        <route edges="495_744 744_118"/>
    </vehicle>
    <vehicle id="152_77.50" type="car" depart="27228.55">
        <route edges="152_744 744_77"/>
    </vehicle>
    <vehicle id="152_118.19" type="car" depart="27230.30">
        <route edges="152_744 744_118"/>
    </vehicle>
    <vehicle id="77_152.56" type="car" depart="27231.56">
        <route edges="77_744 744_152"/>
    </vehicle>
    <vehicle id="152_77.51" type="car" depart="27233.12">
        <route edges="152_744 744_77"/>
    </vehicle>
    <vehicle id="77_152.57" type="car" depart="27235.70">
        <route edges="77_744 744_152"/>
    </vehicle>
    <vehicle id="495_118.30" type="car" depart="27235.80">
        <route edges="495_744 744_118"/>
    </vehicle>
    <vehicle id="495_77.13" type="car" depart="27236.35">
        <route edges="495_744 744_77"/>
    </vehicle>
    <vehicle id="152_77.52" type="car" depart="27237.69">
        <route edges="152_744 744_77"/>
    </vehicle>
    <vehicle id="77_152.58" type="car" depart="27239.83">
        <route edges="77_744 744_152"/>
    </vehicle>
    <vehicle id="118_495.10" type="car" depart="27240.00">
        <route edges="118_744 744_495"/>
    </vehicle>
    <vehicle id="118_152.12" type="car" depart="27242.02">
        <route edges="118_744 744_152"/>
    </vehicle>
    <vehicle id="152_77.53" type="car" depart="27242.26">
        <route edges="152_744 744_77"/>
    </vehicle>
    <vehicle id="152_118.20" type="car" depart="27242.42">
        <route edges="152_744 744_118"/>
    </vehicle>
    <vehicle id="495_118.31" type="car" depart="27243.66">
        <route edges="495_744 744_118"/>
    </vehicle>
    <vehicle id="77_152.59" type="car" depart="27243.97">
        <route edges="77_744 744_152"/>
    </vehicle>
    <vehicle id="77_118.8" type="car" depart="27245.10">
        <route edges="77_744 744_118"/>
    </vehicle>
    <vehicle id="118_77.3" type="car" depart="27245.45">
        <route edges="118_744 744_77"/>
    </vehicle>
    <vehicle id="152_77.54" type="car" depart="27246.83">
        <route edges="152_744 744_77"/>
    </vehicle>
    <vehicle id="77_152.60" type="car" depart="27248.10">
        <route edges="77_744 744_152"/>
    </vehicle>
    <vehicle id="152_77.55" type="car" depart="27251.41">
        <route edges="152_744 744_77"/>
    </vehicle>
    <vehicle id="495_118.32" type="car" depart="27251.52">
        <route edges="495_744 744_118"/>
    </vehicle>
    <vehicle id="77_152.61" type="car" depart="27252.24">
        <route edges="77_744 744_152"/>
    </vehicle>
    <vehicle id="495_77.14" type="car" depart="27254.53">
        <route edges="495_744 744_77"/>
    </vehicle>
    <vehicle id="152_118.21" type="car" depart="27254.54">
        <route edges="152_744 744_118"/>
    </vehicle>
    <vehicle id="152_77.56" type="car" depart="27255.98">
        <route edges="152_744 744_77"/>
    </vehicle>
    <vehicle id="77_152.62" type="car" depart="27256.37">
        <route edges="77_744 744_152"/>
    </vehicle>
    <vehicle id="495_118.33" type="car" depart="27259.38">
        <route edges="495_744 744_118"/>
    </vehicle>
    <vehicle id="152_495.4" type="car" depart="27259.46">
        <route edges="152_744 744_495"/>
    </vehicle>
    <vehicle id="77_152.63" type="car" depart="27260.51">
        <route edges="77_744 744_152"/>
    </vehicle>
    <vehicle id="152_77.57" type="car" depart="27260.55">
        <route edges="152_744 744_77"/>
    </vehicle>
    <vehicle id="118_152.13" type="car" depart="27262.18">
        <route edges="118_744 744_152"/>
    </vehicle>
    <vehicle id="118_495.11" type="car" depart="27264.00">
        <route edges="118_744 744_495"/>
    </vehicle>
    <vehicle id="77_152.64" type="car" depart="27264.64">
        <route edges="77_744 744_152"/>
    </vehicle>
    <vehicle id="152_77.58" type="car" depart="27265.12">
        <route edges="152_744 744_77"/>
    </vehicle>
    <vehicle id="152_118.22" type="car" depart="27266.66">
        <route edges="152_744 744_118"/>
    </vehicle>
    <vehicle id="495_118.34" type="car" depart="27267.24">
        <route edges="495_744 744_118"/>
    </vehicle>
    <vehicle id="77_152.65" type="car" depart="27268.78">
        <route edges="77_744 744_152"/>
    </vehicle>
    <vehicle id="152_77.59" type="car" depart="27269.69">
        <route edges="152_744 744_77"/>
    </vehicle>
    <vehicle id="495_77.15" type="car" depart="27272.72">
        <route edges="495_744 744_77"/>
    </vehicle>
    <vehicle id="77_152.66" type="car" depart="27272.91">
        <route edges="77_744 744_152"/>
    </vehicle>
    <vehicle id="152_77.60" type="car" depart="27274.26">
        <route edges="152_744 744_77"/>
    </vehicle>
    <vehicle id="495_118.35" type="car" depart="27275.10">
        <route edges="495_744 744_118"/>
    </vehicle>
    <vehicle id="77_118.9" type="car" depart="27275.74">
        <route edges="77_744 744_118"/>
    </vehicle>
    <vehicle id="77_152.67" type="car" depart="27277.05">
        <route edges="77_744 744_152"/>
    </vehicle>
    <vehicle id="152_118.23" type="car" depart="27278.78">
        <route edges="152_744 744_118"/>
    </vehicle>
    <vehicle id="152_77.61" type="car" depart="27278.83">
        <route edges="152_744 744_77"/>
    </vehicle>
    <vehicle id="77_152.68" type="car" depart="27281.18">
        <route edges="77_744 744_152"/>
    </vehicle>
    <vehicle id="118_152.14" type="car" depart="27282.35">
        <route edges="118_744 744_152"/>
    </vehicle>
    <vehicle id="495_118.36" type="car" depart="27282.96">
        <route edges="495_744 744_118"/>
    </vehicle>
    <vehicle id="152_77.62" type="car" depart="27283.40">
        <route edges="152_744 744_77"/>
    </vehicle>
    <vehicle id="77_152.69" type="car" depart="27285.32">
        <route edges="77_744 744_152"/>
    </vehicle>
    <vehicle id="152_77.63" type="car" depart="27287.97">
        <route edges="152_744 744_77"/>
    </vehicle>
    <vehicle id="118_495.12" type="car" depart="27288.00">
        <route edges="118_744 744_495"/>
    </vehicle>
    <vehicle id="77_152.70" type="car" depart="27289.45">