<additional>
    <!-- Default -->
    <vType id="pkw" length="5.0" width="2.0" minGap="1.5" maxSpeed="11.11" accel="2.0" decel="4.5" emergencyDecel="4.5" tau="0.9"/>
</additional>
