<?xml version="1.0" encoding="utf-8"?>
<configuration>
	<input>
		<net-file value="hangzhou_4x4_gudang_18041610_1h.net.xml"/>
		<route-files value="hangzhou_4x4_gudang_18041610_1h.rou.xml"/>
		<additional-files value="default.add.xml"/>
	</input>
	<time>
		<begin value="0"/>
		<end value="3600"/>
	</time>
	<processing>
		<time-to-teleport value="-1"/>
	</processing>
</configuration>
