<additional>
    <!-- V3: Rainy -->
    <vType id="pkw" length="5.0" width="2.0" maxSpeed="11.11" minGap="2.5" tau="1.5" accel="0.75" decel="3.5" emergencyDecel="4.0" startupDelay="0.25"/>
</additional>
