<additional>
    <!-- V1: Light Vehicles -->
    <vType id="pkw" length="5.0" width="2.0" maxSpeed="11.11" minGap="2.5" tau="1.5" accel="1.0" decel="2.5" emergencyDecel="6.0" startupDelay="0.5"/>
</additional>
