<additional>
    <!-- V4: Snow -->
    <vType id="pkw" length="5.0" width="2.0" maxSpeed="11.11" minGap="2.5" tau="1.5" accel="0.5" decel="1.5" emergencyDecel="2.0" startupDelay="0.5"/>
</additional>
