<?xml version="1.0" encoding="UTF-8"?>

<!-- generated on 2026-03-21 15:01:28.480051 by Eclipse SUMO cutRoutes.py v1.26.0
<configuration>
    <min-length value="2"/>
    <routes-output value="/home/asurite.ad.asu.edu/frafi1/git_projects/JL-GAT/data/raw_data/bullhead/bullhead_7/bullhead_7.rou.xml"/>
    <orig-net value="/home/asurite.ad.asu.edu/frafi1/git_projects/JL-GAT/data/raw_data/bullhead/bullhead.net.xml"/>
    <big value="True"/>
    <network value="/home/asurite.ad.asu.edu/frafi1/git_projects/JL-GAT/data/raw_data/bullhead/bullhead_7/bullhead_7.net.xml"/>
    <routeFiles value="/home/asurite.ad.asu.edu/frafi1/git_projects/JL-GAT/data/raw_data/bullhead/bullhead.rou.xml"/>
</configuration>
-->

<routes xmlns:xsi="http://www.w3.org/2001/XMLSchema-instance" xsi:noNamespaceSchemaLocation="http://sumo.dlr.de/xsd/routes_file.xsd">
<!-- <vType id="car" accel="2.6" decel="4.5" maxSpeed="13.39" minGap="2.5" tau="0.9"/> -->
    <vehicle id="31_88.0" type="car" depart="32400.00">
        <route edges="31_87 87_88"/>
    </vehicle>
    <vehicle id="31_89.0" type="car" depart="32400.00">
        <route edges="31_87 87_89"/>
    </vehicle>
    <vehicle id="31_98.0" type="car" depart="32400.00">
        <route edges="31_87 87_98"/>
    </vehicle>
    <vehicle id="82_85.0" type="car" depart="32400.00">
        <route edges="82_84 84_85"/>
    </vehicle>
    <vehicle id="82_86.0" type="car" depart="32400.00">
        <route edges="82_84 84_86"/>
    </vehicle>
    <vehicle id="82_98.0" type="car" depart="32400.00">
        <route edges="82_84 84_98"/>
    </vehicle>
    <vehicle id="84_87.0" type="car" depart="32400.00">
        <route edges="84_98 98_87"/>
    </vehicle>
    <vehicle id="84_97.0" type="car" depart="32400.00">
        <route edges="84_98 98_97"/>
    </vehicle>
    <vehicle id="85_82.0" type="car" depart="32400.00">
        <route edges="85_84 84_82"/>
    </vehicle>
    <vehicle id="85_86.0" type="car" depart="32400.00">
        <route edges="85_84 84_86"/>
    </vehicle>
    <vehicle id="85_98.0" type="car" depart="32400.00">
        <route edges="85_84 84_98"/>
    </vehicle>
    <vehicle id="86_82.0" type="car" depart="32400.00">
        <route edges="86_84 84_82"/>
    </vehicle>
    <vehicle id="86_85.0" type="car" depart="32400.00">
        <route edges="86_84 84_85"/>
    </vehicle>
    <vehicle id="86_98.0" type="car" depart="32400.00">
        <route edges="86_84 84_98"/>
    </vehicle>
    <vehicle id="87_84.0" type="car" depart="32400.00">
        <route edges="87_98 98_84"/>
    </vehicle>
    <vehicle id="87_97.0" type="car" depart="32400.00">
        <route edges="87_98 98_97"/>
    </vehicle>
    <vehicle id="88_31.0" type="car" depart="32400.00">
        <route edges="88_87 87_31"/>
    </vehicle>
    <vehicle id="88_89.0" type="car" depart="32400.00">
        <route edges="88_87 87_89"/>
    </vehicle>
    <vehicle id="88_98.0" type="car" depart="32400.00">
        <route edges="88_87 87_98"/>
    </vehicle>
    <vehicle id="89_31.0" type="car" depart="32400.00">
        <route edges="89_87 87_31"/>
    </vehicle>
    <vehicle id="89_88.0" type="car" depart="32400.00">
        <route edges="89_87 87_88"/>
    </vehicle>
    <vehicle id="89_98.0" type="car" depart="32400.00">
        <route edges="89_87 87_98"/>
    </vehicle>
    <vehicle id="97_84.0" type="car" depart="32400.00">
        <route edges="97_98 98_84"/>
    </vehicle>
    <vehicle id="97_87.0" type="car" depart="32400.00">
        <route edges="97_98 98_87"/>
    </vehicle>
    <vehicle id="98_31.0" type="car" depart="32400.00">
        <route edges="98_87 87_31"/>
    </vehicle>
    <vehicle id="98_82.0" type="car" depart="32400.00">
        <route edges="98_84 84_82"/>
    </vehicle>
    <vehicle id="98_85.0" type="car" depart="32400.00">
        <route edges="98_84 84_85"/>
    </vehicle>
    <vehicle id="98_86.0" type="car" depart="32400.00">
        <route edges="98_84 84_86"/>
    </vehicle>
    <vehicle id="98_88.0" type="car" depart="32400.00">
        <route edges="98_87 87_88"/>
    </vehicle>
    <vehicle id="98_89.0" type="car" depart="32400.00">
        <route edges="98_87 87_89"/>
    </vehicle>
    <vehicle id="98_82.1" type="car" depart="32404.83">
        <route edges="98_84 84_82"/>
    </vehicle>
    <vehicle id="87_84.1" type="car" depart="32404.93">
        <route edges="87_98 98_84"/>
    </vehicle>
    <vehicle id="31_98.1" type="car" depart="32405.01">
        <route edges="31_87 87_98"/>
    </vehicle>
    <vehicle id="84_87.1" type="car" depart="32406.45">
        <route edges="84_98 98_87"/>
    </vehicle>
    <vehicle id="82_98.1" type="car" depart="32406.62">
        <route edges="82_84 84_98"/>
    </vehicle>
    <vehicle id="98_31.1" type="car" depart="32407.45">
        <route edges="98_87 87_31"/>
    </vehicle>
    <vehicle id="98_82.2" type="car" depart="32409.66">
        <route edges="98_84 84_82"/>
    </vehicle>
    <vehicle id="87_84.2" type="car" depart="32409.86">
        <route edges="87_98 98_84"/>
    </vehicle>
    <vehicle id="31_98.2" type="car" depart="32410.03">
        <route edges="31_87 87_98"/>
    </vehicle>
    <vehicle id="84_87.2" type="car" depart="32412.90">
        <route edges="84_98 98_87"/>
    </vehicle>
    <vehicle id="82_98.2" type="car" depart="32413.23">
        <route edges="82_84 84_98"/>
    </vehicle>
    <vehicle id="98_82.3" type="car" depart="32414.50">
        <route edges="98_84 84_82"/>
    </vehicle>
    <vehicle id="87_84.3" type="car" depart="32414.79">
        <route edges="87_98 98_84"/>
    </vehicle>
    <vehicle id="98_31.2" type="car" depart="32414.91">
        <route edges="98_87 87_31"/>
    </vehicle>
    <vehicle id="31_98.3" type="car" depart="32415.04">
        <route edges="31_87 87_98"/>
    </vehicle>
    <vehicle id="98_82.4" type="car" depart="32419.33">
        <route edges="98_84 84_82"/>
    </vehicle>
    <vehicle id="84_87.3" type="car" depart="32419.35">
        <route edges="84_98 98_87"/>
    </vehicle>
    <vehicle id="87_84.4" type="car" depart="32419.72">
        <route edges="87_98 98_84"/>
    </vehicle>
    <vehicle id="82_98.3" type="car" depart="32419.85">
        <route edges="82_84 84_98"/>
    </vehicle>
    <vehicle id="31_98.4" type="car" depart="32420.05">
        <route edges="31_87 87_98"/>
    </vehicle>
    <vehicle id="98_31.3" type="car" depart="32422.36">
        <route edges="98_87 87_31"/>
    </vehicle>
    <vehicle id="98_82.5" type="car" depart="32424.16">
        <route edges="98_84 84_82"/>
    </vehicle>
    <vehicle id="87_84.5" type="car" depart="32424.66">
        <route edges="87_98 98_84"/>
    </vehicle>
    <vehicle id="31_98.5" type="car" depart="32425.07">
        <route edges="31_87 87_98"/>
    </vehicle>
    <vehicle id="84_87.4" type="car" depart="32425.80">
        <route edges="84_98 98_87"/>
    </vehicle>
    <vehicle id="82_98.4" type="car" depart="32426.47">
        <route edges="82_84 84_98"/>
    </vehicle>
    <vehicle id="98_82.6" type="car" depart="32428.99">
        <route edges="98_84 84_82"/>
    </vehicle>
    <vehicle id="87_84.6" type="car" depart="32429.59">
        <route edges="87_98 98_84"/>
    </vehicle>
    <vehicle id="98_31.4" type="car" depart="32429.81">
        <route edges="98_87 87_31"/>
    </vehicle>
    <vehicle id="31_98.6" type="car" depart="32430.08">
        <route edges="31_87 87_98"/>
    </vehicle>
    <vehicle id="84_87.5" type="car" depart="32432.26">
        <route edges="84_98 98_87"/>
    </vehicle>
    <vehicle id="82_98.5" type="car" depart="32433.09">
        <route edges="82_84 84_98"/>
    </vehicle>
    <vehicle id="98_82.7" type="car" depart="32433.82">
        <route edges="98_84 84_82"/>
    </vehicle>
    <vehicle id="87_84.7" type="car" depart="32434.52">
        <route edges="87_98 98_84"/>
    </vehicle>
    <vehicle id="31_98.7" type="car" depart="32435.09">
        <route edges="31_87 87_98"/>
    </vehicle>
    <vehicle id="98_31.5" type="car" depart="32437.27">
        <route edges="98_87 87_31"/>
    </vehicle>
    <vehicle id="98_82.8" type="car" depart="32438.66">
        <route edges="98_84 84_82"/>
    </vehicle>
    <vehicle id="84_87.6" type="car" depart="32438.71">
        <route edges="84_98 98_87"/>
    </vehicle>
    <vehicle id="87_84.8" type="car" depart="32439.45">
        <route edges="87_98 98_84"/>
    </vehicle>
    <vehicle id="82_98.6" type="car" depart="32439.70">
        <route edges="82_84 84_98"/>
    </vehicle>
    <vehicle id="31_98.8" type="car" depart="32440.10">
        <route edges="31_87 87_98"/>
    </vehicle>
    <vehicle id="98_82.9" type="car" depart="32443.49">
        <route edges="98_84 84_82"/>
    </vehicle>
    <vehicle id="87_84.9" type="car" depart="32444.38">
        <route edges="87_98 98_84"/>
    </vehicle>
    <vehicle id="98_31.6" type="car" depart="32444.72">
        <route edges="98_87 87_31"/>
    </vehicle>
    <vehicle id="31_98.9" type="car" depart="32445.12">
        <route edges="31_87 87_98"/>
    </vehicle>
    <vehicle id="84_87.7" type="car" depart="32445.16">
        <route edges="84_98 98_87"/>
    </vehicle>
    <vehicle id="82_98.7" type="car" depart="32446.32">
        <route edges="82_84 84_98"/>
    </vehicle>
    <vehicle id="89_31.1" type="car" depart="32446.75">
        <route edges="89_87 87_31"/>
    </vehicle>
    <vehicle id="98_82.10" type="car" depart="32448.32">
        <route edges="98_84 84_82"/>
    </vehicle>
    <vehicle id="87_97.1" type="car" depart="32448.65">
        <route edges="87_98 98_97"/>
    </vehicle>
    <vehicle id="87_84.10" type="car" depart="32449.31">
        <route edges="87_98 98_84"/>
    </vehicle>
    <vehicle id="31_98.10" type="car" depart="32450.13">
        <route edges="31_87 87_98"/>
    </vehicle>
    <vehicle id="84_87.8" type="car" depart="32451.61">
        <route edges="84_98 98_87"/>
    </vehicle>
    <vehicle id="98_31.7" type="car" depart="32452.17">
        <route edges="98_87 87_31"/>
    </vehicle>
    <vehicle id="82_98.8" type="car" depart="32452.94">
        <route edges="82_84 84_98"/>
    </vehicle>
    <vehicle id="98_82.11" type="car" depart="32453.15">
        <route edges="98_84 84_82"/>
    </vehicle>
    <vehicle id="87_84.11" type="car" depart="32454.24">
        <route edges="87_98 98_84"/>
    </vehicle>
    <vehicle id="31_98.11" type="car" depart="32455.14">
        <route edges="31_87 87_98"/>
    </vehicle>
    <vehicle id="98_82.12" type="car" depart="32457.98">
        <route edges="98_84 84_82"/>
    </vehicle>
    <vehicle id="84_87.9" type="car" depart="32458.06">
        <route edges="84_98 98_87"/>
    </vehicle>
    <vehicle id="87_84.12" type="car" depart="32459.17">
        <route edges="87_98 98_84"/>
    </vehicle>
    <vehicle id="82_98.9" type="car" depart="32459.55">
        <route edges="82_84 84_98"/>
    </vehicle>
    <vehicle id="98_31.8" type="car" depart="32459.62">
        <route edges="98_87 87_31"/>
    </vehicle>
    <vehicle id="31_98.12" type="car" depart="32460.16">
        <route edges="31_87 87_98"/>
    </vehicle>
    <vehicle id="98_82.13" type="car" depart="32462.82">
        <route edges="98_84 84_82"/>
    </vehicle>
    <vehicle id="87_84.13" type="car" depart="32464.10">
        <route edges="87_98 98_84"/>
    </vehicle>
    <vehicle id="84_87.10" type="car" depart="32464.51">
        <route edges="84_98 98_87"/>
    </vehicle>
    <vehicle id="31_98.13" type="car" depart="32465.17">
        <route edges="31_87 87_98"/>
    </vehicle>
    <vehicle id="82_98.10" type="car" depart="32466.17">
        <route edges="82_84 84_98"/>
    </vehicle>
    <vehicle id="98_31.9" type="car" depart="32467.08">
        <route edges="98_87 87_31"/>
    </vehicle>
    <vehicle id="98_82.14" type="car" depart="32467.65">
        <route edges="98_84 84_82"/>
    </vehicle>
    <vehicle id="87_84.14" type="car" depart="32469.03">
        <route edges="87_98 98_84"/>
    </vehicle>
    <vehicle id="31_98.14" type="car" depart="32470.18">
        <route edges="31_87 87_98"/>
    </vehicle>
    <vehicle id="84_87.11" type="car" depart="32470.96">
        <route edges="84_98 98_87"/>
    </vehicle>
    <vehicle id="98_82.15" type="car" depart="32472.48">
        <route edges="98_84 84_82"/>
    </vehicle>
    <vehicle id="82_98.11" type="car" depart="32472.79">
        <route edges="82_84 84_98"/>
    </vehicle>
    <vehicle id="87_84.15" type="car" depart="32473.97">
        <route edges="87_98 98_84"/>
    </vehicle>
    <vehicle id="98_31.10" type="car" depart="32474.53">
        <route edges="98_87 87_31"/>
    </vehicle>
    <vehicle id="31_98.15" type="car" depart="32475.20">
        <route edges="31_87 87_98"/>
    </vehicle>
    <vehicle id="98_82.16" type="car" depart="32477.31">
        <route edges="98_84 84_82"/>
    </vehicle>
    <vehicle id="84_87.12" type="car" depart="32477.41">
        <route edges="84_98 98_87"/>
    </vehicle>
    <vehicle id="87_84.16" type="car" depart="32478.90">
        <route edges="87_98 98_84"/>
    </vehicle>
    <vehicle id="82_98.12" type="car" depart="32479.40">
        <route edges="82_84 84_98"/>
    </vehicle>
    <vehicle id="31_98.16" type="car" depart="32480.21">
        <route edges="31_87 87_98"/>
    </vehicle>
    <vehicle id="98_31.11" type="car" depart="32481.98">
        <route edges="98_87 87_31"/>
    </vehicle>
    <vehicle id="98_82.17" type="car" depart="32482.14">
        <route edges="98_84 84_82"/>
    </vehicle>
    <vehicle id="87_84.17" type="car" depart="32483.83">
        <route edges="87_98 98_84"/>
    </vehicle>
    <vehicle id="84_87.13" type="car" depart="32483.86">
        <route edges="84_98 98_87"/>
    </vehicle>
    <vehicle id="31_98.17" type="car" depart="32485.22">
        <route edges="31_87 87_98"/>
    </vehicle>
    <vehicle id="89_98.1" type="car" depart="32485.71">
        <route edges="89_87 87_98"/>
    </vehicle>
    <vehicle id="82_98.13" type="car" depart="32486.02">
        <route edges="82_84 84_98"/>
    </vehicle>
    <vehicle id="98_82.18" type="car" depart="32486.98">
        <route edges="98_84 84_82"/>
    </vehicle>
    <vehicle id="86_98.1" type="car" depart="32487.80">
        <route edges="86_84 84_98"/>
    </vehicle>
    <vehicle id="87_84.18" type="car" depart="32488.76">
        <route edges="87_98 98_84"/>
    </vehicle>
    <vehicle id="98_31.12" type="car" depart="32489.44">
        <route edges="98_87 87_31"/>
    </vehicle>
    <vehicle id="31_98.18" type="car" depart="32490.23">
        <route edges="31_87 87_98"/>
    </vehicle>
    <vehicle id="84_87.14" type="car" depart="32490.31">
        <route edges="84_98 98_87"/>
    </vehicle>
    <vehicle id="98_82.19" type="car" depart="32491.81">
        <route edges="98_84 84_82"/>
    </vehicle>
    <vehicle id="82_98.14" type="car" depart="32492.64">
        <route edges="82_84 84_98"/>
    </vehicle>
    <vehicle id="89_31.2" type="car" depart="32493.51">
        <route edges="89_87 87_31"/>
    </vehicle>
    <vehicle id="87_84.19" type="car" depart="32493.69">
        <route edges="87_98 98_84"/>
    </vehicle>
    <vehicle id="31_98.19" type="car" depart="32495.25">
        <route edges="31_87 87_98"/>
    </vehicle>
    <vehicle id="98_82.20" type="car" depart="32496.64">
        <route edges="98_84 84_82"/>
    </vehicle>
    <vehicle id="84_87.15" type="car" depart="32496.77">
        <route edges="84_98 98_87"/>
    </vehicle>
    <vehicle id="98_31.13" type="car" depart="32496.89">
        <route edges="98_87 87_31"/>
    </vehicle>
    <vehicle id="87_97.2" type="car" depart="32497.30">
        <route edges="87_98 98_97"/>
    </vehicle>
    <vehicle id="87_84.20" type="car" depart="32498.62">
        <route edges="87_98 98_84"/>
    </vehicle>
    <vehicle id="82_98.15" type="car" depart="32499.26">
        <route edges="82_84 84_98"/>
    </vehicle>
    <vehicle id="31_98.20" type="car" depart="32500.26">
        <route edges="31_87 87_98"/>
    </vehicle>
    <vehicle id="98_82.21" type="car" depart="32501.47">
        <route edges="98_84 84_82"/>
    </vehicle>
    <vehicle id="84_87.16" type="car" depart="32503.22">
        <route edges="84_98 98_87"/>
    </vehicle>
    <vehicle id="87_84.21" type="car" depart="32503.55">
        <route edges="87_98 98_84"/>
    </vehicle>
    <vehicle id="98_31.14" type="car" depart="32504.34">
        <route edges="98_87 87_31"/>
    </vehicle>
    <vehicle id="31_98.21" type="car" depart="32505.27">
        <route edges="31_87 87_98"/>
    </vehicle>
    <vehicle id="82_98.16" type="car" depart="32505.87">
        <route edges="82_84 84_98"/>
    </vehicle>
    <vehicle id="98_82.22" type="car" depart="32506.30">
        <route edges="98_84 84_82"/>
    </vehicle>
    <vehicle id="87_84.22" type="car" depart="32508.48">
        <route edges="87_98 98_84"/>
    </vehicle>
    <vehicle id="84_87.17" type="car" depart="32509.67">
        <route edges="84_98 98_87"/>
    </vehicle>
    <vehicle id="31_98.22" type="car" depart="32510.29">
        <route edges="31_87 87_98"/>
    </vehicle>
    <vehicle id="98_82.23" type="car" depart="32511.14">
        <route edges="98_84 84_82"/>
    </vehicle>
    <vehicle id="98_31.15" type="car" depart="32511.80">
        <route edges="98_87 87_31"/>
    </vehicle>
    <vehicle id="82_98.17" type="car" depart="32512.49">
        <route edges="82_84 84_98"/>
    </vehicle>
    <vehicle id="87_84.23" type="car" depart="32513.41">
        <route edges="87_98 98_84"/>
    </vehicle>
    <vehicle id="31_98.23" type="car" depart="32515.30">
        <route edges="31_87 87_98"/>
    </vehicle>
    <vehicle id="98_82.24" type="car" depart="32515.97">
        <route edges="98_84 84_82"/>
    </vehicle>
    <vehicle id="84_87.18" type="car" depart="32516.12">
        <route edges="84_98 98_87"/>
    </vehicle>
    <vehicle id="87_84.24" type="car" depart="32518.34">
        <route edges="87_98 98_84"/>
    </vehicle>
    <vehicle id="82_98.18" type="car" depart="32519.11">
        <route edges="82_84 84_98"/>
    </vehicle>
    <vehicle id="98_31.16" type="car" depart="32519.25">
        <route edges="98_87 87_31"/>
    </vehicle>
    <vehicle id="31_98.24" type="car" depart="32520.31">
        <route edges="31_87 87_98"/>
    </vehicle>
    <vehicle id="98_82.25" type="car" depart="32520.80">
        <route edges="98_84 84_82"/>
    </vehicle>
    <vehicle id="84_87.19" type="car" depart="32522.57">
        <route edges="84_98 98_87"/>
    </vehicle>
    <vehicle id="87_84.25" type="car" depart="32523.28">
        <route edges="87_98 98_84"/>
    </vehicle>
    <vehicle id="98_86.1" type="car" depart="32524.14">
        <route edges="98_84 84_86"/>
    </vehicle>
    <vehicle id="31_98.25" type="car" depart="32525.33">
        <route edges="31_87 87_98"/>
    </vehicle>
    <vehicle id="98_82.26" type="car" depart="32525.63">
        <route edges="98_84 84_82"/>
    </vehicle>
    <vehicle id="82_98.19" type="car" depart="32525.72">
        <route edges="82_84 84_98"/>
    </vehicle>
    <vehicle id="98_31.17" type="car" depart="32526.70">
        <route edges="98_87 87_31"/>
    </vehicle>
    <vehicle id="87_84.26" type="car" depart="32528.21">
        <route edges="87_98 98_84"/>
    </vehicle>
    <vehicle id="31_89.1" type="car" depart="32528.57">
        <route edges="31_87 87_89"/>
    </vehicle>
    <vehicle id="84_87.20" type="car" depart="32529.02">
        <route edges="84_98 98_87"/>
    </vehicle>
    <vehicle id="31_98.26" type="car" depart="32530.34">
        <route edges="31_87 87_98"/>
    </vehicle>
    <vehicle id="98_82.27" type="car" depart="32530.46">
        <route edges="98_84 84_82"/>
    </vehicle>
    <vehicle id="82_98.20" type="car" depart="32532.34">
        <route edges="82_84 84_98"/>
    </vehicle>
    <vehicle id="87_84.27" type="car" depart="32533.14">
        <route edges="87_98 98_84"/>
    </vehicle>
    <vehicle id="98_31.18" type="car" depart="32534.15">
        <route edges="98_87 87_31"/>
    </vehicle>
    <vehicle id="98_82.28" type="car" depart="32535.30">
        <route edges="98_84 84_82"/>
    </vehicle>
    <vehicle id="31_98.27" type="car" depart="32535.35">
        <route edges="31_87 87_98"/>
    </vehicle>
    <vehicle id="84_87.21" type="car" depart="32535.47">
        <route edges="84_98 98_87"/>
    </vehicle>
    <vehicle id="87_84.28" type="car" depart="32538.07">
        <route edges="87_98 98_84"/>
    </vehicle>
    <vehicle id="82_98.21" type="car" depart="32538.96">
        <route edges="82_84 84_98"/>
    </vehicle>
    <vehicle id="98_82.29" type="car" depart="32540.13">
        <route edges="98_84 84_82"/>
    </vehicle>
    <vehicle id="89_31.3" type="car" depart="32540.26">
        <route edges="89_87 87_31"/>
    </vehicle>
    <vehicle id="31_98.28" type="car" depart="32540.36">
        <route edges="31_87 87_98"/>
    </vehicle>
    <vehicle id="98_31.19" type="car" depart="32541.61">
        <route edges="98_87 87_31"/>
    </vehicle>
    <vehicle id="84_87.22" type="car" depart="32541.92">
        <route edges="84_98 98_87"/>
    </vehicle>
    <vehicle id="87_84.29" type="car" depart="32543.00">
        <route edges="87_98 98_84"/>
    </vehicle>
    <vehicle id="84_97.1" type="car" depart="32544.00">
        <route edges="84_98 98_97"/>
    </vehicle>
    <vehicle id="97_87.1" type="car" depart="32544.00">
        <route edges="97_98 98_87"/>
    </vehicle>
    <vehicle id="98_82.30" type="car" depart="32544.96">
        <route edges="98_84 84_82"/>
    </vehicle>
    <vehicle id="31_98.29" type="car" depart="32545.38">
        <route edges="31_87 87_98"/>
    </vehicle>
    <vehicle id="82_98.22" type="car" depart="32545.57">
        <route edges="82_84 84_98"/>
    </vehicle>
    <vehicle id="87_97.3" type="car" depart="32545.94">
        <route edges="87_98 98_97"/>
    </vehicle>
    <vehicle id="87_84.30" type="car" depart="32547.93">
        <route edges="87_98 98_84"/>
    </vehicle>
    <vehicle id="84_87.23" type="car" depart="32548.37">
        <route edges="84_98 98_87"/>
    </vehicle>
    <vehicle id="98_31.20" type="car" depart="32549.06">
        <route edges="98_87 87_31"/>
    </vehicle>
    <vehicle id="98_82.31" type="car" depart="32549.79">
        <route edges="98_84 84_82"/>
    </vehicle>
    <vehicle id="31_98.30" type="car" depart="32550.39">
        <route edges="31_87 87_98"/>
    </vehicle>
    <vehicle id="82_98.23" type="car" depart="32552.19">
        <route edges="82_84 84_98"/>
    </vehicle>
    <vehicle id="87_84.31" type="car" depart="32552.86">
        <route edges="87_98 98_84"/>
    </vehicle>
    <vehicle id="98_82.32" type="car" depart="32554.62">
        <route edges="98_84 84_82"/>
    </vehicle>
    <vehicle id="84_87.24" type="car" depart="32554.82">
        <route edges="84_98 98_87"/>
    </vehicle>
    <vehicle id="31_98.31" type="car" depart="32555.40">
        <route edges="31_87 87_98"/>
    </vehicle>
    <vehicle id="98_31.21" type="car" depart="32556.51">
        <route edges="98_87 87_31"/>
    </vehicle>
    <vehicle id="82_86.1" type="car" depart="32556.52">
        <route edges="82_84 84_86"/>
    </vehicle>
    <vehicle id="86_82.1" type="car" depart="32556.52">
        <route edges="86_84 84_82"/>
    </vehicle>
    <vehicle id="88_98.1" type="car" depart="32556.52">
        <route edges="88_87 87_98"/>
    </vehicle>
    <vehicle id="87_84.32" type="car" depart="32557.79">
        <route edges="87_98 98_84"/>
    </vehicle>
    <vehicle id="82_98.24" type="car" depart="32558.81">
        <route edges="82_84 84_98"/>
    </vehicle>
    <vehicle id="98_82.33" type="car" depart="32559.46">
        <route edges="98_84 84_82"/>
    </vehicle>
    <vehicle id="31_98.32" type="car" depart="32560.42">
        <route edges="31_87 87_98"/>
    </vehicle>
    <vehicle id="84_87.25" type="car" depart="32561.28">
        <route edges="84_98 98_87"/>
    </vehicle>
    <vehicle id="87_84.33" type="car" depart="32562.72">
        <route edges="87_98 98_84"/>
    </vehicle>
    <vehicle id="98_31.22" type="car" depart="32563.97">
        <route edges="98_87 87_31"/>
    </vehicle>
    <vehicle id="98_82.34" type="car" depart="32564.29">
        <route edges="98_84 84_82"/>
    </vehicle>
    <vehicle id="82_98.25" type="car" depart="32565.43">
        <route edges="82_84 84_98"/>
    </vehicle>
    <vehicle id="31_98.33" type="car" depart="32565.43">
        <route edges="31_87 87_98"/>
    </vehicle>
    <vehicle id="87_84.34" type="car" depart="32567.65">
        <route edges="87_98 98_84"/>
    </vehicle>
    <vehicle id="84_87.26" type="car" depart="32567.73">
        <route edges="84_98 98_87"/>
    </vehicle>
    <vehicle id="98_82.35" type="car" depart="32569.12">
        <route edges="98_84 84_82"/>
    </vehicle>
    <vehicle id="31_98.34" type="car" depart="32570.44">
        <route edges="31_87 87_98"/>
    </vehicle>
    <vehicle id="98_31.23" type="car" depart="32571.42">
        <route edges="98_87 87_31"/>
    </vehicle>
    <vehicle id="89_98.2" type="car" depart="32571.43">
        <route edges="89_87 87_98"/>
    </vehicle>
    <vehicle id="97_84.1" type="car" depart="32571.43">
        <route edges="97_98 98_84"/>
    </vehicle>
    <vehicle id="98_89.1" type="car" depart="32571.43">
        <route edges="98_87 87_89"/>
    </vehicle>
    <vehicle id="82_98.26" type="car" depart="32572.04">
        <route edges="82_84 84_98"/>
    </vehicle>
    <vehicle id="87_84.35" type="car" depart="32572.59">
        <route edges="87_98 98_84"/>
    </vehicle>
    <vehicle id="98_82.36" type="car" depart="32573.95">
        <route edges="98_84 84_82"/>
    </vehicle>
    <vehicle id="84_87.27" type="car" depart="32574.18">
        <route edges="84_98 98_87"/>
    </vehicle>
    <vehicle id="31_98.35" type="car" depart="32575.46">
        <route edges="31_87 87_98"/>
    </vehicle>
    <vehicle id="86_98.2" type="car" depart="32575.61">
        <route edges="86_84 84_98"/>
    </vehicle>
    <vehicle id="87_84.36" type="car" depart="32577.52">
        <route edges="87_98 98_84"/>
    </vehicle>
    <vehicle id="82_98.27" type="car" depart="32578.66">
        <route edges="82_84 84_98"/>
    </vehicle>
    <vehicle id="98_82.37" type="car" depart="32578.78">
        <route edges="98_84 84_82"/>
    </vehicle>
    <vehicle id="98_31.24" type="car" depart="32578.87">
        <route edges="98_87 87_31"/>
    </vehicle>
    <vehicle id="31_98.36" type="car" depart="32580.47">
        <route edges="31_87 87_98"/>
    </vehicle>
    <vehicle id="84_87.28" type="car" depart="32580.63">
        <route edges="84_98 98_87"/>
    </vehicle>
    <vehicle id="87_84.37" type="car" depart="32582.45">
        <route edges="87_98 98_84"/>
    </vehicle>
    <vehicle id="98_82.38" type="car" depart="32583.62">
        <route edges="98_84 84_82"/>
    </vehicle>
    <vehicle id="82_98.28" type="car" depart="32585.28">
        <route edges="82_84 84_98"/>
    </vehicle>
    <vehicle id="31_98.37" type="car" depart="32585.48">
        <route edges="31_87 87_98"/>
    </vehicle>
    <vehicle id="98_31.25" type="car" depart="32586.33">
        <route edges="98_87 87_31"/>
    </vehicle>
    <vehicle id="89_31.4" type="car" depart="32587.01">
        <route edges="89_87 87_31"/>
    </vehicle>
    <vehicle id="84_87.29" type="car" depart="32587.08">
        <route edges="84_98 98_87"/>
    </vehicle>
    <vehicle id="87_84.38" type="car" depart="32587.38">
        <route edges="87_98 98_84"/>
    </vehicle>
    <vehicle id="98_82.39" type="car" depart="32588.45">
        <route edges="98_84 84_82"/>
    </vehicle>
    <vehicle id="89_88.1" type="car" depart="32589.47">
        <route edges="89_87 87_88"/>
    </vehicle>
    <vehicle id="31_98.38" type="car" depart="32590.49">
        <route edges="31_87 87_98"/>
    </vehicle>
    <vehicle id="82_98.29" type="car" depart="32591.89">
        <route edges="82_84 84_98"/>
    </vehicle>
    <vehicle id="87_84.39" type="car" depart="32592.31">
        <route edges="87_98 98_84"/>
    </vehicle>
    <vehicle id="98_82.40" type="car" depart="32593.28">
        <route edges="98_84 84_82"/>
    </vehicle>
    <vehicle id="84_87.30" type="car" depart="32593.53">
        <route edges="84_98 98_87"/>
    </vehicle>
    <vehicle id="98_31.26" type="car" depart="32593.78">
        <route edges="98_87 87_31"/>
    </vehicle>
    <vehicle id="87_97.4" type="car" depart="32594.59">
        <route edges="87_98 98_97"/>
    </vehicle>
    <vehicle id="31_98.39" type="car" depart="32595.51">
        <route edges="31_87 87_98"/>
    </vehicle>
    <vehicle id="87_84.40" type="car" depart="32597.24">
        <route edges="87_98 98_84"/>
    </vehicle>
    <vehicle id="98_82.41" type="car" depart="32598.11">
        <route edges="98_84 84_82"/>
    </vehicle>
    <vehicle id="82_98.30" type="car" depart="32598.51">
        <route edges="82_84 84_98"/>
    </vehicle>
    <vehicle id="84_87.31" type="car" depart="32599.98">
        <route edges="84_98 98_87"/>
    </vehicle>
    <vehicle id="88_31.1" type="car" depart="32600.00">
        <route edges="88_87 87_31"/>
    </vehicle>
    <vehicle id="31_98.40" type="car" depart="32600.52">
        <route edges="31_87 87_98"/>
    </vehicle>
    <vehicle id="98_31.27" type="car" depart="32601.23">
        <route edges="98_87 87_31"/>
    </vehicle>
    <vehicle id="87_84.41" type="car" depart="32602.17">
        <route edges="87_98 98_84"/>
    </vehicle>
    <vehicle id="98_82.42" type="car" depart="32602.94">
        <route edges="98_84 84_82"/>
    </vehicle>
    <vehicle id="82_98.31" type="car" depart="32605.13">
        <route edges="82_84 84_98"/>
    </vehicle>
    <vehicle id="31_98.41" type="car" depart="32605.53">
        <route edges="31_87 87_98"/>
    </vehicle>
    <vehicle id="84_87.32" type="car" depart="32606.43">
        <route edges="84_98 98_87"/>
    </vehicle>
    <vehicle id="87_84.42" type="car" depart="32607.10">