<?xml version="1.0" encoding="UTF-8"?>

<configuration>
    <input>
        <net-file value="bullhead_3.net.xml"/>
        <route-files value="bullhead_3.rou.xml"/>
    </input>
    <time>
        <begin value="32400"/>
        <end value="36000"/>
        <step-length value="1"/>
    </time>
</configuration>
