<additional>
    <!-- Default -->
    <vType id="car" accel="2.6" decel="4.5" maxSpeed="12.8" minGap="2.5" tau="1.5"/>
</additional>
