<additional>
    <!-- Default -->
    <vType id="default_016" minGap="2.5" maxSpeed="13.39" vClass="passenger" accel="2.6" decel="4.5" tau="0.8"/>
</additional>
