<additional>
    <!-- Default -->
    <vType id="default_016" minGap="1.5" maxSpeed="12.8" vClass="passenger" accel="2.6" decel="4.5" tau="1.0"/>
</additional>
