<?xml version="1.0" encoding="UTF-8"?>

<!-- generated on 2026-03-21T16:57:28.991743-07:00 by Eclipse SUMO duarouter 1.26.0
<duarouterConfiguration xmlns:xsi="http://www.w3.org/2001/XMLSchema-instance" xsi:noNamespaceSchemaLocation="http://sumo.dlr.de/xsd/duarouterConfiguration.xsd">

    <input>
        <net-file value="/home/asurite.ad.asu.edu/frafi1/git_projects/JL-GAT/data/raw_data/ingolstadt7/ingolstadt7.net.xml"/>
        <route-files value="/home/asurite.ad.asu.edu/frafi1/git_projects/JL-GAT/data/raw_data/ingolstadt7/ingolstadt7.trip.xml"/>
    </input>

    <output>
        <output-file value="/home/asurite.ad.asu.edu/frafi1/git_projects/JL-GAT/data/raw_data/ingolstadt7/ingolstadt7.rou.xml"/>
    </output>

</duarouterConfiguration>
-->

<routes xmlns:xsi="http://www.w3.org/2001/XMLSchema-instance" xsi:noNamespaceSchemaLocation="http://sumo.dlr.de/xsd/routes_file.xsd">
    <vType id="default_016" minGap="2.5" maxSpeed="13.39" vClass="passenger" accel="2.6" decel="4.5" tau="0.8"/>
    <vehicle id="carIn105842:1" type="default_016" depart="57600.20">
        <route edges="653473569#5 164051413 124812857#0 201956811#0"/>
    </vehicle>
    <vehicle id="carIn107084:1" type="default_016" depart="57600.30">
        <route edges="124812856#0 124812856#1 201956821#0 201956821#1.68 201963537#1 -164051413 -653473569#5"/>
    </vehicle>
    <vehicle id="carIn113711:1" type="default_016" depart="57600.30">
        <route edges="-24693977#1 -24693977#0 -32999434#1 32999110#0 402600768#0 402600768#1 51857517#0 51857517#0.33 51857517#1 51857516#1 -266565295#5"/>
    </vehicle>
    <vehicle id="carIn79400:1" type="default_016" depart="57603.90">
        <route edges="-24693977#1 -24693977#0 -32999434#1 32999110#0 402600768#0 402600768#1 51857517#0 51857517#0.33 51857517#1 51857516#1 -266565295#5"/>
    </vehicle>
    <vehicle id="randUni10474:1" type="default_016" depart="57604.80">
        <route edges="124812856#0 124812856#1 201956821#0 201956821#1.68 201963537#1 -164051413 -653473569#5"/>
    </vehicle>
    <vehicle id="carIn77943:1" type="default_016" depart="57605.50">
        <route edges="124812856#0 124812856#1 201956821#0 201956821#1.68 201963537#1 -164051413 -653473569#5"/>
    </vehicle>
    <vehicle id="carIn28951:1" type="default_016" depart="57605.80">
        <route edges="10425609#0 10425609#1 201963537#1 -164051413 -653473569#5"/>
    </vehicle>
    <vehicle id="carIn81046:1" type="default_016" depart="57608.50">
        <route edges="124812856#0 124812856#1 201956821#0 201956821#1.68 201963537#1 -164051413 -653473569#5"/>
    </vehicle>
    <vehicle id="carIn28488:1" type="default_016" depart="57610.20">
        <route edges="653473569#5 164051413 124812857#0 201956819#0 201956820"/>
    </vehicle>
    <vehicle id="carIn89578:1" type="default_016" depart="57610.40">
        <route edges="124812856#0 124812856#1 201956810"/>
    </vehicle>
    <vehicle id="carIn96537:1" type="default_016" depart="57611.20">
        <route edges="124812856#0 124812856#1 201956821#0 201956821#1.68 201963537#1 104010475#0 104012170 104010460#1 202070434#0 202070434#2"/>
    </vehicle>
    <vehicle id="h15454c2:3" type="default_016" depart="57611.50">
        <route edges="24608844 32124634 32124637#1 51857518#1 32978638#0"/>
    </vehicle>
    <vehicle id="carIn106322:1" type="default_016" depart="57611.80">
        <route edges="653473569#5 164051413 124812857#0 201956811#0"/>
    </vehicle>
    <vehicle id="carIn77438:1" type="default_016" depart="57612.90">
        <route edges="124812856#0 124812856#1 201956821#0 201956821#1.68 201963537#1 -164051413 -653473569#5"/>
    </vehicle>
    <vehicle id="carIn115641:1" type="default_016" depart="57613.10">
        <route edges="-24693977#1 -24693977#0 -32999434#1 32999110#0 402600768#0 402600768#1 51857517#0 51857517#0.33 51857517#1 51857516#1 -266565295#5"/>
    </vehicle>
    <vehicle id="carIn5482:1" type="default_016" depart="57613.40">
        <route edges="653473569#5 164051413 124812857#0 201956811#0"/>
    </vehicle>
    <vehicle id="carIn26410:1" type="default_016" depart="57613.50">
        <route edges="124812856#0 124812856#1 201956821#0 201956821#1.68 201963537#1 104010475#0 104012170 104010460#1 202070434#0 202070434#2"/>
    </vehicle>
    <vehicle id="carIn52610:1" type="default_016" depart="57614.90">
        <route edges="-24693977#1 -24693977#0 -32999434#1 32999110#0 402600768#0 402600768#1 51857517#0 51857517#0.33 51857517#1 51857516#1 -266565295#5"/>
    </vehicle>
    <vehicle id="h19804c1:3" type="default_016" depart="57615.50">
        <route edges="124812856#0 124812856#1 201956821#0 201956821#1.68 201963537#1 -164051413 -653473569#5"/>
    </vehicle>
    <vehicle id="carIn36103:1" type="default_016" depart="57616.00">
        <route edges="653473569#5 164051413 124812857#0 201956811#0"/>
    </vehicle>
    <vehicle id="carIn51024:1" type="default_016" depart="57616.10">
        <route edges="124812856#0 124812856#1 201956821#0 201956821#1.68 201963537#1 104010475#0 104012170 104010460#1 202070434#0 202070434#2"/>
    </vehicle>
    <vehicle id="carIn102997:1" type="default_016" depart="57618.20">
        <route edges="653473569#5 164051413 124812857#0 201956811#0"/>
    </vehicle>
    <vehicle id="carIn128705:1" type="default_016" depart="57618.40">
        <route edges="124812856#0 124812856#1 201956821#0 201956821#1.68 201963537#1 104010475#0 104012170 104010460#1 202070434#0 202070434#2"/>
    </vehicle>
    <vehicle id="carIn767:1" type="default_016" depart="57618.50">
        <route edges="124812856#0 124812856#1 201956821#0 201956821#1.68 201963537#1 -164051413 -653473569#5"/>
    </vehicle>
    <vehicle id="h21989c1:1" type="default_016" depart="57620.40">
        <route edges="124812856#0 124812856#1 201956821#0 201956821#1.68 201963537#1 104010475#0 104012170 104010460#1 202070434#0 202070434#2"/>
    </vehicle>
    <vehicle id="carIn75554:1" type="default_016" depart="57620.80">
        <route edges="653473569#5 164051413 124812857#0 201956811#0"/>
    </vehicle>
    <vehicle id="carIn107842:1" type="default_016" depart="57621.10">
        <route edges="124812856#0 124812856#1 201956821#0 201956821#1.68 201963537#1 -164051413 -653473569#5"/>
    </vehicle>
    <vehicle id="carIn10158:1" type="default_016" depart="57621.20">
        <route edges="-24693977#1 -24693977#0 -32999434#1 32999110#0 402600768#0 402600768#1 51857517#0 51857517#0.33 51857517#1 51857516#1 -266565295#5"/>
    </vehicle>
    <vehicle id="h645c1:1" type="default_016" depart="57621.60">
        <route edges="266565295#5 32999435 32124637#0 32124637#1 168702040#1 168702040#2 168702040#3 168702040#4 -315358253#2 -315358253#1"/>
    </vehicle>
    <vehicle id="h15382c1:3" type="default_016" depart="57622.20">
        <route edges="124812856#0 124812856#1 201956821#0 201956821#1.68 201963537#1 -164051413 -653473569#5"/>
    </vehicle>
    <vehicle id="60R.41" type="default_016" depart="57622.70">
        <route edges="27920078#0 27920078#1 201963535 104010354 124812857#0 201956811#0"/>
    </vehicle>
    <vehicle id="carIn3969:1" type="default_016" depart="57623.70">
        <route edges="124812856#0 124812856#1 201956821#0 201956821#1.68 201963537#1 -164051413 -653473569#5"/>
    </vehicle>
    <vehicle id="carIn56649:1" type="default_016" depart="57623.90">
        <route edges="124812856#0 124812856#1 201956821#0 201956821#1.68 201963537#1 -164051413 -653473569#5"/>
    </vehicle>
    <vehicle id="carIn13117:1" type="default_016" depart="57625.20">
        <route edges="27920078#0 27920078#1 201963535 104010354 124812857#0 201956819#0 201956820"/>
    </vehicle>
    <vehicle id="carIn38625:1" type="default_016" depart="57625.50">
        <route edges="124812856#0 124812856#1 201956821#0 201956821#1.68 201963537#1 -164051413 -653473569#5"/>
    </vehicle>
    <vehicle id="h10915c2:1" type="default_016" depart="57625.80">
        <route edges="315358253#1 315358253#2 168702039#1 32999434#0 201089423#0 201089423#2 32124744 32124743 285716192#0 285716192#0.83 201963535 104010354 -164051413 -653473569#5"/>
    </vehicle>
    <vehicle id="carIn925:1" type="default_016" depart="57626.10">
        <route edges="124812856#0 124812856#1 201956810"/>
    </vehicle>
    <vehicle id="carIn17767:1" type="default_016" depart="57627.20">
        <route edges="124812856#0 124812856#1 201956821#0 201956821#1.68 201963537#1 -164051413 -653473569#5"/>
    </vehicle>
    <vehicle id="carIn20106:1" type="default_016" depart="57627.30">
        <route edges="27920078#0 27920078#1 201963535 104010354 124812857#0 201956819#0 201956820"/>
    </vehicle>
    <vehicle id="carIn25202:1" type="default_016" depart="57627.50">
        <route edges="315358253#1 315358253#2 402600768#0 402600768#1 51857517#0 51857517#0.33 51857517#1 51857518#1 32978638#0"/>
    </vehicle>
    <vehicle id="randUni20090:1" type="default_016" depart="57628.00">
        <route edges="653473569#5 164051413 124812857#0 201956811#0"/>
    </vehicle>
    <vehicle id="carIn64859:1" type="default_016" depart="57628.40">
        <route edges="124812856#0 124812856#1 201956821#0 201956821#1.68 201963537#1 -164051413 -653473569#5"/>
    </vehicle>
    <vehicle id="carIn48979:1" type="default_016" depart="57628.90">
        <route edges="124812856#0 124812856#1 201956821#0 201956821#1.68 201963537#1 -164051413 -653473569#5"/>
    </vehicle>
    <vehicle id="randUni5403:1" type="default_016" depart="57629.10">
        <route edges="315358253#1 315358253#2 168702039#1 32999434#0 201089423#0 201089423#2 32124744 32124743 285716192#0 285716192#0.83 201963535 104010354 -164051413 -653473569#5"/>
    </vehicle>
    <vehicle id="carIn111853:1" type="default_016" depart="57629.20">
        <route edges="27920078#0 27920078#1 -32124745 -32124743 -32124744 -201089423#2 -201089423#1 -32999434#1 32999110#0 402600768#0 402600768#1 51857517#0 51857517#0.33 51857517#1 51857516#1 -266565295#5"/>
    </vehicle>
    <vehicle id="h21130c2:1" type="default_016" depart="57629.90">
        <route edges="10425609#0 10425609#1 201963537#1 104010475#0 104012170 104010460#1 202070434#0 202070434#2"/>
    </vehicle>
    <vehicle id="carIn88932:1" type="default_016" depart="57630.60">
        <route edges="124812856#0 124812856#1 201956821#0 201956821#1.68 201963537#1 -164051413 -653473569#5"/>
    </vehicle>
    <vehicle id="h15353c2:1" type="default_016" depart="57630.70">
        <route edges="124812856#0 124812856#1 201956821#0 201956821#1.68 201963537#1 -164051413 -653473569#5"/>
    </vehicle>
    <vehicle id="carIn114137:1" type="default_016" depart="57630.90">
        <route edges="27920078#0 27920078#1 -32124745 172488483#0 -83304175#2"/>
    </vehicle>
    <vehicle id="carIn44740:1" type="default_016" depart="57632.30">
        <route edges="124812856#0 124812856#1 201956821#0 201956821#1.68 201963537#1 -164051413 -653473569#5"/>
    </vehicle>
    <vehicle id="carIn22637:1" type="default_016" depart="57632.50">
        <route edges="27920078#0 27920078#1 -32124745 172488483#0 -83304175#2"/>
    </vehicle>
    <vehicle id="randUni29093:1" type="default_016" depart="57633.00">
        <route edges="124812856#0 124812856#1 201956821#0 201956821#1.68 201963537#1 -164051413 -653473569#5"/>
    </vehicle>
    <vehicle id="h20232c1:2" type="default_016" depart="57633.50">
        <route edges="-173169611#0 201956820"/>
    </vehicle>
    <vehicle id="h20540c1:1" type="default_016" depart="57633.50">
        <route edges="10425609#0 10425609#1 201963537#1 -164051413 -653473569#5"/>
    </vehicle>
    <vehicle id="carIn64490:1" type="default_016" depart="57633.90">
        <route edges="124812856#0 124812856#1 201956821#0 201956821#1.68 201963537#1 -164051413 -653473569#5"/>
    </vehicle>
    <vehicle id="randUni27349:1" type="default_016" depart="57633.90">
        <route edges="27920078#0 27920078#1 201963535 104010354 124812857#0 201956811#0"/>
    </vehicle>
    <vehicle id="carIn37268:1" type="default_016" depart="57635.10">
        <route edges="653473569#5 164051413 124812857#0 201956811#0"/>
    </vehicle>
    <vehicle id="carIn131078:1" type="default_016" depart="57635.40">
        <route edges="124812856#0 124812856#1 201956810"/>
    </vehicle>
    <vehicle id="h20403c1:5" type="default_016" depart="57635.40">
        <route edges="27920078#0 27920078#1 201963535 104010354 124812857#0 201956811#0"/>
    </vehicle>
    <vehicle id="carIn13362:1" type="default_016" depart="57635.60">
        <route edges="124812856#0 124812856#1 201956821#0 201956821#1.68 201963537#1 -164051413 -653473569#5"/>
    </vehicle>
    <vehicle id="carIn73466:1" type="default_016" depart="57636.90">
        <route edges="27920078#0 27920078#1 201963535 104010354 124812857#0 201956811#0"/>
    </vehicle>
    <vehicle id="carIn99385:1" type="default_016" depart="57637.10">
        <route edges="124812856#0 124812856#1 201956821#0 201956821#1.68 201963537#1 -164051413 -653473569#5"/>
    </vehicle>
    <vehicle id="carIn11547:1" type="default_016" depart="57637.70">
        <route edges="124812856#0 124812856#1 201956821#0 201956821#1.68 201963537#1 -164051413 -653473569#5"/>
    </vehicle>
    <vehicle id="h19699c1:3" type="default_016" depart="57638.40">
        <route edges="27920078#0 27920078#1 -32124745 -32124743 -32124744 -201089423#2 -201089423#1 -32999434#1 32999110#0 402600768#0 402600768#1 51857517#0 51857517#0.33 51857517#1 51857516#1 -266565295#5"/>
    </vehicle>
    <vehicle id="carIn100220:1" type="default_016" depart="57639.00">
        <route edges="124812856#0 124812856#1 201956821#0 201956821#1.68 201963537#1 104010475#0 104012170 104010460#1 202070434#0 202070434#2"/>
    </vehicle>
    <vehicle id="h18569c2:1" type="default_016" depart="57640.00">
        <route edges="27920078#0 27920078#1 -32124745 -32124743 -32124744 -201089423#2 -201089423#1 -32999434#1 32999110#0 402600768#0 402600768#1 51857517#0 51857517#0.33 51857517#1 51857516#1 -266565295#5"/>
    </vehicle>
    <vehicle id="carIn25314:1" type="default_016" depart="57640.20">
        <route edges="124812856#0 124812856#1 201956821#0 201956821#1.68 201963537#1 -164051413 -653473569#5"/>
    </vehicle>
    <vehicle id="60.39" type="default_016" depart="57642.50">
        <route edges="10425609#0 10425609#1 201963537#1 104010475#0 104012170 104010460#1 202070434#0 202070434#2"/>
    </vehicle>
    <vehicle id="carIn32621:1" type="default_016" depart="57643.00">
        <route edges="124812856#0 124812856#1 201956821#0 201956821#1.68 201963537#1 -164051413 -653473569#5"/>
    </vehicle>
    <vehicle id="carIn12152:1" type="default_016" depart="57646.50">
        <route edges="24599188#0.94 172488482#0 -32124744 -201089423#2 -201089423#1 24693977#0 24693977#1"/>
    </vehicle>
    <vehicle id="carIn12900:1" type="default_016" depart="57648.20">
        <route edges="124812856#0 124812856#1 201956810"/>
    </vehicle>
    <vehicle id="carIn55461:1" type="default_016" depart="57651.70">
        <route edges="10425609#0 10425609#1 201956819#0 201956810"/>
    </vehicle>
    <vehicle id="h3568c1:3" type="default_016" depart="57655.20">
        <route edges="266565295#5 32999435 32124637#0 32124637#1 168702040#1 168702040#2 168702040#3 168702040#4 168702039#1 -24634414#5 -24634414#4 24634415 -24634415"/>
    </vehicle>
    <vehicle id="h5292c2:1" type="default_016" depart="57656.00">
        <route edges="-24693977#1 -24693977#0 -32999434#1 32999110#0 402600768#0 402600768#1 51857517#0 51857517#0.33 51857517#1 51857516#1 -266565295#5"/>
    </vehicle>
    <vehicle id="h2215c1:1" type="default_016" depart="57656.10">
        <route edges="25145012#7 104010354 124812857#0 201956811#0"/>
    </vehicle>
    <vehicle id="carIn106665:1" type="default_016" depart="57657.20">
        <route edges="266565295#5 32999435 32124637#0 32124637#1 168702040#1 168702040#2 168702040#3 168702040#4 168702039#1 32999434#0 24693977#0 24693977#1"/>
    </vehicle>
    <vehicle id="carIn129760:1" type="default_016" depart="57660.20">
        <route edges="653473569#5 164051413 124812857#0 201956811#0"/>
    </vehicle>
    <vehicle id="carIn7887:1" type="default_016" depart="57660.50">
        <route edges="27920078#0 27920078#1 -32124745 172488483#0 -83304175#2"/>
    </vehicle>
    <vehicle id="carIn129626:1" type="default_016" depart="57662.40">
        <route edges="653473569#5 164051413 124812857#0 201956811#0"/>
    </vehicle>
    <vehicle id="carIn124416:1" type="default_016" depart="57662.50">
        <route edges="-173169611#0 201956820"/>
    </vehicle>
    <vehicle id="carIn55090:1" type="default_016" depart="57664.60">
        <route edges="-173169611#0 201956820"/>
    </vehicle>
    <vehicle id="h20539c1:3" type="default_016" depart="57664.80">
        <route edges="653473569#5 164051413 124812857#0 201956811#0"/>
    </vehicle>
    <vehicle id="carIn102740:1" type="default_016" depart="57667.00">
        <route edges="25145012#7 104010354 124812857#0 201956811#0"/>
    </vehicle>
    <vehicle id="carIn35345:1" type="default_016" depart="57668.60">
        <route edges="25145012#7 104010354 124812857#0 201956811#0"/>
    </vehicle>
    <vehicle id="carIn33538:1" type="default_016" depart="57670.70">
        <route edges="37386279 -24634414#4"/>
    </vehicle>
    <vehicle id="carIn26407:1" type="default_016" depart="57672.50">
        <route edges="25145012#7 104010354 124812857#0 201956811#0"/>
    </vehicle>
    <vehicle id="carIn21160:1" type="default_016" depart="57673.90">
        <route edges="-24693977#1 -24693977#0 -32999434#1 32999110#0 402600768#0 402600768#1 51857517#0 51857517#0.33 51857517#1 51857516#1 -266565295#5"/>
    </vehicle>
    <vehicle id="carIn12775:1" type="default_016" depart="57675.40">
        <route edges="10425609#0 10425609#1 201963537#1 -164051413 -653473569#5"/>
    </vehicle>
    <vehicle id="carIn90263:1" type="default_016" depart="57676.40">
        <route edges="-24693977#1 -24693977#0 -32999434#1 32999110#0 402600768#0 402600768#1 51857517#0 51857517#0.33 51857517#1 51857516#1 -266565295#5"/>
    </vehicle>
    <vehicle id="h3688c1:1" type="default_016" depart="57678.50">
        <route edges="315358253#1 315358253#2 402600768#0 402600768#1 51857517#0 51857517#0.33 51857517#1 51857518#1 32978638#0"/>
    </vehicle>
    <vehicle id="h3154c1:1" type="default_016" depart="57680.60">
        <route edges="-24693977#1 -24693977#0 -32999434#1 32999110#0 402600768#0 402600768#1 51857517#0 51857517#0.33 51857517#1 51857516#1 -266565295#5"/>
    </vehicle>
    <vehicle id="h9878c1:3" type="default_016" depart="57685.30">
        <route edges="-24693977#1 -24693977#0 -32999434#1 32999110#0 402600768#0 402600768#1 51857517#0 51857517#0.33 51857517#1 51857518#1 32978638#0"/>
    </vehicle>
    <vehicle id="carIn78692:1" type="default_016" depart="57693.50">
        <route edges="25145012#7 104010354 124812857#0 201956811#0"/>
    </vehicle>
    <vehicle id="carIn91254:1" type="default_016" depart="57695.90">
        <route edges="653473569#5 164051413 124812857#0 201956811#0"/>
    </vehicle>
    <vehicle id="h9894c1:3" type="default_016" depart="57697.80">
        <route edges="-24693977#1 -24693977#0 -32999434#1 32999110#0 402600768#0 402600768#1 51857517#0 51857517#0.33 51857517#1 51857518#1 32978638#0"/>
    </vehicle>
    <vehicle id="carIn96193:1" type="default_016" depart="57704.40">
        <route edges="25145012#7 104010354 124812857#0 201956811#0"/>
    </vehicle>
    <vehicle id="carIn98489:1" type="default_016" depart="57706.90">
        <route edges="25145012#7 104010354 124812857#0 201956811#0"/>
    </vehicle>
    <vehicle id="h317c2:1" type="default_016" depart="57706.90">
        <route edges="-32978638#0 32021112#0 51857516#1 -266565295#5"/>
    </vehicle>
    <vehicle id="carIn68826:1" type="default_016" depart="57711.00">
        <route edges="266565295#5 32999435 32124637#0 32124637#1 168702040#1 168702040#2 168702040#3 168702040#4 168702039#1 32999434#0 201089423#0 201089423#2 32124744 32124743 285716192#0 285716192#0.83 104010439#1 202070434#0 202070434#2"/>
    </vehicle>
    <vehicle id="h11849c2:1" type="default_016" depart="57711.00">
        <route edges="266565295#5 32999435 32124637#0 32124637#1 168702040#1 168702040#2 168702040#3 168702040#4 168702039#1 32999434#0 201089423#0 201089423#2 32124744 32124743 285716192#0 285716192#0.83 104010439#1 202070434#0 202070434#2"/>
    </vehicle>
    <vehicle id="carIn44477:1" type="default_016" depart="57711.30">
        <route edges="27920078#0 27920078#1 -32124745 -32124743 -32124744 -201089423#2 -201089423#1 -32999434#1 32999110#0 402600768#0 402600768#1 51857517#0 51857517#0.33 51857517#1 51857516#1 -266565295#5"/>
    </vehicle>
    <vehicle id="carIn92532:1" type="default_016" depart="57712.50">
        <route edges="266565295#5 32999435 32124637#0 32124637#1 168702040#1 168702040#2 168702040#3 168702040#4 168702039#1 32999434#0 201089423#0 201089423#2 32124744 32124743 285716192#0 285716192#0.83 201963535 104010354 -164051413 -653473569#5"/>
    </vehicle>
    <vehicle id="carIn106325:1" type="default_016" depart="57712.90">
        <route edges="27920078#0 27920078#1 -32124745 172488483#0 -83304175#2"/>
    </vehicle>
    <vehicle id="carIn57508:1" type="default_016" depart="57714.60">
        <route edges="27920078#0 27920078#1 -32124745 -32124743 -32124744 -201089423#2 -201089423#1 -32999434#1 32999110#0 402600768#0 402600768#1 51857517#0 51857517#0.33 51857517#1 51857516#1 -266565295#5"/>
    </vehicle>
    <vehicle id="carIn124439:1" type="default_016" depart="57716.20">
        <route edges="27920078#0 27920078#1 -32124745 -32124743 -32124744 -201089423#2 -201089423#1 -32999434#1 32999110#0 402600768#0 402600768#1 51857517#0 51857517#0.33 51857517#1 51857516#1 -266565295#5"/>
    </vehicle>
    <vehicle id="carIn99738:1" type="default_016" depart="57717.70">
        <route edges="27920078#0 27920078#1 -32124745 172488483#0 -83304175#2"/>
    </vehicle>
    <vehicle id="randUni22709:1" type="default_016" depart="57717.80">
        <route edges="315358253#1 315358253#2 402600768#0 402600768#1 51857517#0 51857517#0.33 51857517#1 51857518#1 32978638#0"/>
    </vehicle>
    <vehicle id="h4745c1:1" type="default_016" depart="57717.80">
        <route edges="25145012#7 104010354 124812857#0 201956811#0"/>
    </vehicle>
    <vehicle id="h134c1:3" type="default_016" depart="57719.40">
        <route edges="315358253#1 315358253#2 402600768#0 402600768#1 51857517#0 51857517#0.33 51857517#1 51857518#1 32978638#0"/>
    </vehicle>
    <vehicle id="carIn112789:1" type="default_016" depart="57719.40">
        <route edges="27920078#0 27920078#1 -32124745 -32124743 -32124744 -201089423#2 -201089423#1 -32999434#1 32999110#0 402600768#0 402600768#1 51857517#0 51857517#0.33 51857517#1 51857516#1 -266565295#5"/>
    </vehicle>
    <vehicle id="carIn99509:1" type="default_016" depart="57719.80">
        <route edges="-32978638#0 32021112#0 168702040#1 168702040#2 168702040#3 168702040#4 -315358253#2 -315358253#1"/>
    </vehicle>
    <vehicle id="carIn74045:1" type="default_016" depart="57721.00">
        <route edges="315358253#1 315358253#2 402600768#0 402600768#1 51857517#0 51857517#0.33 51857517#1 51857518#1 32978638#0"/>
    </vehicle>
    <vehicle id="carIn103916:1" type="default_016" depart="57721.10">
        <route edges="27920078#0 27920078#1 -32124745 -32124743 -32124744 -201089423#2 -201089423#1 -32999434#1 32999110#0 402600768#0 402600768#1 51857517#0 51857517#0.33 51857517#1 51857516#1 -266565295#5"/>
    </vehicle>
    <vehicle id="h21189c1:3" type="default_016" depart="57721.90">
        <route edges="10425609#0 10425609#1 201963537#1 104010475#0 104012170 104010460#1 202070434#0 202070434#2"/>
    </vehicle>
    <vehicle id="carIn33467:1" type="default_016" depart="57723.00">
        <route edges="-24693977#1 -24693977#0 -32999434#1 32999110#0 402600768#0 402600768#1 51857517#0 51857517#0.33 51857517#1 51857518#1 32978638#0"/>
    </vehicle>
    <vehicle id="carIn70484:1" type="default_016" depart="57723.40">
        <route edges="653473569#5 164051413 104010475#0 104012170 -32124745 -32124743 -32124744 -201089423#2 -201089423#1 -32999434#1 32999110#0 402600768#0 402600768#1 51857517#0 51857517#0.33 51857517#1 51857516#1 -266565295#5"/>
    </vehicle>
    <vehicle id="carIn87464:1" type="default_016" depart="57724.70">
        <route edges="-24693977#1 -24693977#0 -32999434#1 32999110#0 402600768#0 402600768#1 51857517#0 51857517#0.33 51857517#1 51857516#1 -266565295#5"/>
    </vehicle>
    <vehicle id="carIn106797:1" type="default_016" depart="57725.00">
        <route edges="653473569#5 164051413 124812857#0 201956811#0"/>
    </vehicle>
    <vehicle id="carIn26708:1" type="default_016" depart="57726.60">
        <route edges="653473569#5 164051413 124812857#0 201956811#0"/>
    </vehicle>
    <vehicle id="carIn124270:1" type="default_016" depart="57727.40">
        <route edges="25145012#7 104010354 124812857#0 201956811#0"/>
    </vehicle>
    <vehicle id="carIn48988:1" type="default_016" depart="57728.10">
        <route edges="653473569#5 164051413 104010475#0 104012170 -32124745 -32124743 -32124744 -201089423#2 -201089423#1 -32999434#1 32999110#0 402600768#0 402600768#1 51857517#0 51857517#0.33 51857517#1 51857516#1 -266565295#5"/>
    </vehicle>
    <vehicle id="h19989c1:1" type="default_016" depart="57729.40">
        <route edges="10425609#0 10425609#1 201963537#1 -164051413 -653473569#5"/>
    </vehicle>
    <vehicle id="carIn34550:1" type="default_016" depart="57730.40">
        <route edges="653473569#5 164051413 124812857#0 201956811#0"/>
    </vehicle>
    <vehicle id="carIn92858:1" type="default_016" depart="57732.20">
        <route edges="10425609#0 10425609#1 201963537#1 -164051413 -653473569#5"/>
    </vehicle>
    <vehicle id="carIn41791:1" type="default_016" depart="57732.20">
        <route edges="653473569#5 164051413 124812857#0 201956811#0"/>
    </vehicle>
    <vehicle id="carIn101439:1" type="default_016" depart="57734.30">
        <route edges="10425609#0 10425609#1 201963537#1 -164051413 -653473569#5"/>
    </vehicle>
    <vehicle id="carIn13016:1" type="default_016" depart="57735.50">
        <route edges="653473569#5 164051413 124812857#0 201956811#0"/>
    </vehicle>
    <vehicle id="h330c1:1" type="default_016" depart="57735.80">
        <route edges="-32978638#0 32021112#0 51857516#1 -266565295#5"/>
    </vehicle>
    <vehicle id="carIn84229:1" type="default_016" depart="57736.80">
        <route edges="10425609#0 10425609#1 201963537#1 -164051413 -653473569#5"/>
    </vehicle>
    <vehicle id="carIn70477:1" type="default_016" depart="57737.80">
        <route edges="653473569#5 164051413 124812857#0 201956811#0"/>
    </vehicle>
    <vehicle id="carIn129628:1" type="default_016" depart="57738.50">
        <route edges="24599188#0.94 172488482#0 -32124744 -201089423#2 -201089423#1 24693977#0 24693977#1"/>
    </vehicle>
    <vehicle id="carIn61538:1" type="default_016" depart="57738.70">
        <route edges="27920078#0 27920078#1 -32124745 -32124743 -32124744 -201089423#2 -201089423#1 -32999434#1 32999110#0 402600768#0 402600768#1 51857517#0 51857517#0.33 51857517#1 51857516#1 -266565295#5"/>
    </vehicle>
    <vehicle id="11_frequency1.42" type="default_016" depart="57738.70">
        <route edges="315358253#1 315358253#2 402600768#0 402600768#1 51857517#0 51857517#0.33 51857517#1 51857518#1 32978638#0"/>
    </vehicle>
    <vehicle id="randUni26227:1" type="default_016" depart="57740.50">
        <route edges="653473569#5 164051413 124812857#0 201956811#0"/>
    </vehicle>
    <vehicle id="carIn98605:1" type="default_016" depart="57740.80">
        <route edges="315358253#1 315358253#2 402600768#0 402600768#1 51857517#0 51857517#0.33 51857517#1 51857518#1 32978638#0"/>
    </vehicle>
    <vehicle id="carIn7365:1" type="default_016" depart="57741.30">
        <route edges="10425609#0 10425609#1 201963537#1 104010475#0 104012170 104010460#1 202070434#0 202070434#2"/>
    </vehicle>
    <vehicle id="h319c1:3" type="default_016" depart="57742.30">
        <route edges="315358253#1 315358253#2 402600768#0 402600768#1 51857517#0 51857517#0.33 51857517#1 51857518#1 32978638#0"/>
    </vehicle>
    <vehicle id="h10591c1:1" type="default_016" depart="57742.40">
        <route edges="266565295#5 32999435 32124637#0 32124637#1 168702040#1 168702040#2 168702040#3 168702040#4 168702039#1 32999434#0 201089423#0 201089423#2 32124744 32124743 285716192#0 285716192#0.83 201963535 104010354 -164051413 -653473569#5"/>
    </vehicle>
    <vehicle id="h7328c1:1" type="default_016" depart="57742.40">
        <route edges="-24693977#1 -24693977#0 201089423#0 201089423#2 32124744 32124743 285716192#0 285716192#0.83 201963535 104010354 124812857#0 201956819#0 201956820"/>
    </vehicle>
    <vehicle id="h13760c1:1" type="default_016" depart="57742.90">
        <route edges="266565295#5 32999435 32124637#0 32124637#1 168702040#1 168702040#2 168702040#3 168702040#4 168702039#1 32999434#0 24693977#0 24693977#1"/>
    </vehicle>
    <vehicle id="carIn42651:1" type="default_016" depart="57743.10">
        <route edges="25145012#7 104010354 124812857#0 201956819#0 201956820"/>
    </vehicle>
    <vehicle id="carIn16842:1" type="default_016" depart="57743.60">
        <route edges="10425609#0 10425609#1 201963537#1 -164051413 -653473569#5"/>
    </vehicle>
    <vehicle id="h5925c1:1" type="default_016" depart="57743.80">
        <route edges="315358253#1 315358253#2 168702039#1 32999434#0 201089423#0 201089423#2 32124744 32124743 285716192#0 285716192#0.83 104010439#1 202070434#0 202070434#2"/>
    </vehicle>
    <vehicle id="h18300c2:1" type="default_016" depart="57744.70">
        <route edges="25145012#7 104010354 124812857#0 201956811#0"/>
    </vehicle>
    <vehicle id="carIn107250:1" type="default_016" depart="57745.30">