<additional>
    <!-- V3: Rainy -->
    <vType id="default_016" minGap="2.5" maxSpeed="13.39" vClass="passenger" tau="1.5" accel="0.75" decel="3.5" emergencyDecel="6.0" startupDelay="0.25"/>
</additional>
