<additional>
    <!-- V1: Light Vehicles -->
    <vType id="default_016" minGap="2.5" maxSpeed="13.39" vClass="passenger" tau="1.5" accel="1.0" decel="2.5" emergencyDecel="6.0" startupDelay="0.5"/>
</additional>
