<?xml version="1.0" encoding="UTF-8"?>

<!-- generated on 2025-10-10 17:37:33 by Eclipse SUMO netedit Version 1.24.0
<neteditConfiguration xmlns:xsi="http://www.w3.org/2001/XMLSchema-instance" xsi:noNamespaceSchemaLocation="http://sumo.dlr.de/xsd/neteditConfiguration.xsd">

    <input>
        <sumo-net-file value="/home/red/tempe/net1/tempe_net1.net.xml"/>
    </input>

    <output>
        <output-file value="/home/red/tempe/net1/tempe_net1.net.xml"/>
    </output>

    <processing>
        <geometry.min-radius.fix.railways value="false"/>
        <geometry.avoid-overlap value="false"/>
        <geometry.max-grade.fix value="false"/>
        <offset.disable-normalization value="true"/>
        <lefthand value="0"/>
    </processing>

    <junctions>
        <no-turnarounds value="true"/>
        <junctions.corner-detail value="5"/>
        <junctions.limit-turn-speed value="5.50"/>
        <rectangular-lane-cut value="0"/>
    </junctions>

    <pedestrian>
        <walkingareas value="0"/>
    </pedestrian>

</neteditConfiguration>
-->

<net version="1.20" junctionCornerDetail="5" limitTurnSpeed="5.50" avoidOverlap="0" xmlns:xsi="http://www.w3.org/2001/XMLSchema-instance" xsi:noNamespaceSchemaLocation="http://sumo.dlr.de/xsd/net_file.xsd">

    <location netOffset="-408512.79,-3687071.16" convBoundary="306.26,6421.80,2888.58,8197.74" origBoundary="-111.984046,33.319046,-111.878946,33.461056" projParameter="+proj=utm +zone=12 +ellps=WGS84 +datum=WGS84 +units=m +no_defs"/>

    <edge id=":152_0" function="internal">
        <lane id=":152_0_0" index="0" speed="6.51" length="9.03" shape="876.85,6595.37 876.48,6592.92 875.42,6591.18 873.67,6590.14 871.22,6589.80"/>
    </edge>
    <edge id=":152_1" function="internal">
        <lane id=":152_1_0" index="0" speed="10.54" length="25.39" shape="880.05,6595.35 880.55,6585.90 882.16,6579.15 884.90,6575.09 888.74,6573.72"/>
    </edge>
    <edge id=":152_2" function="internal">
        <lane id=":152_2_0" index="0" speed="8.09" length="14.56" shape="888.78,6583.32 886.34,6584.08 884.60,6586.33 883.57,6590.09 883.25,6595.34"/>
    </edge>
    <edge id=":152_3" function="internal">
        <lane id=":152_3_0" index="0" speed="20.12" length="19.07" shape="888.78,6583.32 883.41,6584.34 880.00,6586.56 876.60,6588.77 871.22,6589.80"/>
        <lane id=":152_3_1" index="1" speed="20.12" length="19.07" shape="888.77,6580.12 883.39,6581.14 879.99,6583.36 876.58,6585.57 871.20,6586.60"/>
        <lane id=":152_3_2" index="2" speed="20.12" length="19.07" shape="888.76,6576.92 883.38,6577.94 879.97,6580.16 876.57,6582.37 871.19,6583.40"/>
    </edge>
    <edge id=":152_6" function="internal">
        <lane id=":152_6_0" index="0" speed="3.65" length="4.67" shape="888.76,6576.92 887.55,6576.12 887.15,6575.33 887.55,6574.52 888.74,6573.72"/>
    </edge>
    <edge id=":152_7" function="internal">
        <lane id=":152_7_0" index="0" speed="20.12" length="17.98" shape="871.10,6564.20 876.37,6563.67 879.90,6562.56 883.42,6561.44 888.69,6560.92"/>
        <lane id=":152_7_1" index="1" speed="20.12" length="17.98" shape="871.12,6567.40 876.38,6566.87 879.91,6565.76 883.44,6564.64 888.70,6564.12"/>
        <lane id=":152_7_2" index="2" speed="20.12" length="17.98" shape="871.13,6570.60 876.40,6570.07 879.92,6568.96 883.45,6567.84 888.72,6567.32"/>
    </edge>
    <edge id=":152_10" function="internal">
        <lane id=":152_10_0" index="0" speed="10.96" length="9.37" shape="871.15,6573.80 876.40,6575.12 879.10,6578.01"/>
    </edge>
    <edge id=":152_11" function="internal">
        <lane id=":152_11_0" index="0" speed="3.65" length="4.67" shape="871.15,6573.80 872.35,6574.59 872.75,6575.39 872.36,6576.19 871.16,6577.00"/>
    </edge>
    <edge id=":152_12" function="internal">
        <lane id=":152_12_0" index="0" speed="10.96" length="18.16" shape="879.10,6578.01 880.16,6579.15 882.45,6585.89 883.25,6595.34"/>
    </edge>
    <edge id=":153_0" function="internal">
        <lane id=":153_0_0" index="0" speed="9.10" length="18.36" shape="1073.59,6598.06 1073.02,6591.26 1071.70,6586.41 1069.65,6583.51 1066.85,6582.55"/>
    </edge>
    <edge id=":153_1" function="internal">
        <lane id=":153_1_0" index="0" speed="10.06" length="43.61" shape="1073.59,6598.06 1072.19,6554.47"/>
    </edge>
    <edge id=":153_2" function="internal">
        <lane id=":153_2_0" index="0" speed="11.44" length="19.78" shape="1076.79,6597.97 1077.30,6587.00 1079.48,6579.19 1079.91,6578.66"/>
    </edge>
    <edge id=":153_20" function="internal">
        <lane id=":153_20_0" index="0" speed="11.44" length="11.11" shape="1079.91,6578.66 1083.33,6574.52 1088.87,6573.00"/>
    </edge>
    <edge id=":153_3" function="internal">
        <lane id=":153_3_0" index="0" speed="6.43" length="9.03" shape="1088.70,6592.20 1086.23,6592.53 1084.49,6593.57 1083.48,6595.33 1083.19,6597.80"/>
    </edge>
    <edge id=":153_4" function="internal">
        <lane id=":153_4_0" index="0" speed="20.12" length="23.14" shape="1088.73,6589.00 1082.10,6587.94 1077.79,6585.72 1073.48,6583.52 1066.85,6582.55"/>
        <lane id=":153_4_1" index="1" speed="20.12" length="23.14" shape="1088.75,6585.80 1082.12,6584.74 1077.80,6582.52 1073.47,6580.32 1066.84,6579.35"/>
        <lane id=":153_4_2" index="2" speed="20.12" length="23.14" shape="1088.78,6582.60 1082.13,6581.54 1077.80,6579.32 1073.47,6577.12 1066.82,6576.15"/>
    </edge>
    <edge id=":153_7" function="internal">
        <lane id=":153_7_0" index="0" speed="11.89" length="31.41" shape="1088.81,6579.40 1083.32,6576.73 1078.02,6570.24 1073.95,6562.10 1072.19,6554.47"/>
        <lane id=":153_7_1" index="1" speed="11.06" length="27.07" shape="1088.84,6576.20 1084.12,6573.96 1079.87,6568.46 1076.74,6561.36 1075.39,6554.35"/>
    </edge>
    <edge id=":153_9" function="internal">
        <lane id=":153_9_0" index="0" speed="3.65" length="4.67" shape="1088.84,6576.20 1087.65,6575.39 1087.25,6574.58 1087.66,6573.79 1088.87,6573.00"/>
    </edge>
    <edge id=":153_10" function="internal">
        <lane id=":153_10_0" index="0" speed="7.86" length="13.17" shape="1081.78,6554.10 1082.37,6558.15 1083.76,6561.04 1085.95,6562.79 1088.95,6563.40"/>
    </edge>
    <edge id=":153_11" function="internal">
        <lane id=":153_11_0" index="0" speed="10.06" length="43.73" shape="1081.78,6554.10 1083.19,6597.80"/>
    </edge>
    <edge id=":153_12" function="internal">
        <lane id=":153_12_0" index="0" speed="10.90" length="17.69" shape="1078.59,6554.22 1078.17,6563.80 1076.07,6570.64 1075.42,6571.34"/>
    </edge>
    <edge id=":153_21" function="internal">
        <lane id=":153_21_0" index="0" speed="10.90" length="10.28" shape="1075.42,6571.34 1072.29,6574.76 1066.82,6576.15"/>
    </edge>
    <edge id=":153_13" function="internal">
        <lane id=":153_13_0" index="0" speed="6.43" length="9.03" shape="1066.75,6560.15 1069.22,6559.78 1070.94,6558.72 1071.93,6556.95 1072.19,6554.47"/>
    </edge>
    <edge id=":153_14" function="internal">
        <lane id=":153_14_0" index="0" speed="20.12" length="22.47" shape="1066.75,6560.15 1073.38,6560.62 1077.85,6561.72 1082.33,6562.84 1088.95,6563.40"/>
        <lane id=":153_14_1" index="1" speed="20.12" length="22.47" shape="1066.77,6563.35 1073.38,6563.82 1077.85,6564.92 1082.31,6566.04 1088.92,6566.60"/>
        <lane id=":153_14_2" index="2" speed="20.12" length="22.47" shape="1066.78,6566.55 1073.38,6567.02 1077.84,6568.12 1082.30,6569.24 1088.90,6569.80"/>
    </edge>
    <edge id=":153_17" function="internal">
        <lane id=":153_17_0" index="0" speed="12.19" length="33.76" shape="1066.80,6569.75 1072.03,6572.87 1077.31,6580.43 1081.43,6589.67 1083.19,6597.80"/>
        <lane id=":153_17_1" index="1" speed="11.42" length="29.47" shape="1066.81,6572.95 1071.33,6575.58 1075.53,6582.08 1078.66,6590.24 1079.99,6597.89"/>
    </edge>
    <edge id=":153_19" function="internal">
        <lane id=":153_19_0" index="0" speed="3.65" length="4.67" shape="1066.81,6572.95 1068.01,6573.74 1068.42,6574.54 1068.02,6575.34 1066.82,6576.15"/>
    </edge>
    <edge id=":154_0" function="internal">
        <lane id=":154_0_0" index="0" speed="6.55" length="9.03" shape="1275.38,6599.42 1275.01,6596.98 1273.95,6595.23 1272.20,6594.17 1269.76,6593.80"/>
    </edge>
    <edge id=":154_1" function="internal">
        <lane id=":154_1_0" index="0" speed="11.86" length="33.36" shape="1278.58,6599.39 1279.25,6587.16 1281.52,6578.47 1285.39,6573.33 1290.85,6571.73"/>
        <lane id=":154_1_1" index="1" speed="10.95" length="28.27" shape="1281.78,6599.36 1282.26,6588.58 1283.91,6580.91 1286.75,6576.36 1290.76,6574.93"/>
    </edge>
    <edge id=":154_3" function="internal">
        <lane id=":154_3_0" index="0" speed="8.64" length="17.18" shape="1290.50,6584.52 1288.03,6585.39 1286.29,6588.15 1285.27,6592.80 1284.98,6599.34"/>
    </edge>
    <edge id=":154_4" function="internal">
        <lane id=":154_4_0" index="0" speed="20.12" length="23.43" shape="1290.50,6584.52 1284.07,6585.86 1280.13,6589.08 1276.19,6592.35 1269.76,6593.80"/>
        <lane id=":154_4_1" index="1" speed="20.12" length="23.43" shape="1290.59,6581.33 1284.14,6582.66 1280.19,6585.88 1276.24,6589.15 1269.78,6590.60"/>
        <lane id=":154_4_2" index="2" speed="20.12" length="23.43" shape="1290.68,6578.13 1284.21,6579.46 1280.25,6582.68 1276.28,6585.95 1269.81,6587.40"/>
    </edge>
    <edge id=":154_7" function="internal">
        <lane id=":154_7_0" index="0" speed="3.65" length="4.67" shape="1290.68,6578.13 1289.50,6577.29 1289.12,6576.48 1289.54,6575.69 1290.76,6574.93"/>
    </edge>
    <edge id=":154_8" function="internal">
        <lane id=":154_8_0" index="0" speed="20.12" length="22.29" shape="1270.01,6565.00 1276.42,6564.05 1280.61,6561.89 1284.79,6559.77 1291.20,6558.93"/>
        <lane id=":154_8_1" index="1" speed="20.12" length="22.29" shape="1269.98,6568.20 1276.38,6567.25 1280.55,6565.09 1284.72,6562.97 1291.11,6562.13"/>
        <lane id=":154_8_2" index="2" speed="20.12" length="22.29" shape="1269.95,6571.40 1276.33,6570.45 1280.49,6568.29 1284.65,6566.17 1291.03,6565.33"/>
    </edge>
    <edge id=":154_11" function="internal">
        <lane id=":154_11_0" index="0" speed="11.92" length="11.97" shape="1269.93,6574.60 1276.43,6576.20 1280.17,6579.92"/>
    </edge>
    <edge id=":154_12" function="internal">
        <lane id=":154_12_0" index="0" speed="3.65" length="4.67" shape="1269.93,6574.60 1271.12,6575.41 1271.51,6576.22 1271.11,6577.01 1269.90,6577.80"/>
    </edge>
    <edge id=":154_13" function="internal">
        <lane id=":154_13_0" index="0" speed="11.92" length="20.36" shape="1280.17,6579.92 1281.10,6580.85 1283.95,6588.56 1284.98,6599.34"/>
    </edge>
    <edge id=":155_0" function="internal">
        <lane id=":155_0_0" index="0" speed="8.32" length="14.97" shape="1380.69,6599.33 1380.29,6593.93 1379.21,6590.04 1377.45,6587.68 1375.02,6586.85"/>
    </edge>
    <edge id=":155_1" function="internal">
        <lane id=":155_1_0" index="0" speed="14.53" length="43.49" shape="1383.89,6599.30 1386.61,6555.89"/>
    </edge>
    <edge id=":155_2" function="internal">
        <lane id=":155_2_0" index="0" speed="11.66" length="30.62" shape="1387.09,6599.27 1387.75,6588.48 1389.97,6580.71 1393.77,6575.95 1399.13,6574.20"/>
        <lane id=":155_2_1" index="1" speed="10.71" length="25.70" shape="1390.29,6599.23 1390.77,6589.82 1392.42,6583.04 1395.25,6578.90 1399.26,6577.40"/>
    </edge>
    <edge id=":155_4" function="internal">
        <lane id=":155_4_0" index="0" speed="6.81" length="9.77" shape="1399.89,6593.39 1397.07,6593.85 1395.06,6594.97 1393.87,6596.75 1393.49,6599.20"/>
    </edge>
    <edge id=":155_5" function="internal">
        <lane id=":155_5_0" index="0" speed="20.12" length="25.80" shape="1399.89,6593.39 1392.39,6592.63 1387.46,6590.44 1382.52,6588.09 1375.02,6586.85"/>
        <lane id=":155_5_1" index="1" speed="20.12" length="25.80" shape="1399.76,6590.19 1392.33,6589.43 1387.44,6587.24 1382.55,6584.89 1375.11,6583.65"/>
        <lane id=":155_5_2" index="2" speed="20.12" length="25.80" shape="1399.64,6586.99 1392.26,6586.23 1387.42,6584.04 1382.57,6581.69 1375.20,6580.45"/>
    </edge>
    <edge id=":155_8" function="internal">
        <lane id=":155_8_0" index="0" speed="11.98" length="33.81" shape="1399.51,6583.80 1393.99,6582.24 1390.00,6577.07 1387.54,6568.29 1386.61,6555.89"/>
        <lane id=":155_8_1" index="1" speed="11.08" length="28.75" shape="1399.38,6580.60 1395.30,6579.19 1392.35,6574.60 1390.52,6566.82 1389.81,6555.86"/>
    </edge>
    <edge id=":155_10" function="internal">
        <lane id=":155_10_0" index="0" speed="3.65" length="4.67" shape="1399.38,6580.60 1398.15,6579.85 1397.72,6579.06 1398.09,6578.25 1399.26,6577.40"/>
    </edge>
    <edge id=":155_11" function="internal">
        <lane id=":155_11_0" index="0" speed="7.29" length="11.86" shape="1393.01,6555.82 1393.41,6559.75 1394.50,6562.52 1396.28,6564.14 1398.76,6564.61"/>
    </edge>
    <edge id=":155_12" function="internal">
        <lane id=":155_12_0" index="0" speed="12.08" length="34.68" shape="1393.01,6555.82 1392.01,6566.78 1388.70,6574.54 1383.10,6579.10 1375.20,6580.45"/>
    </edge>
    <edge id=":155_13" function="internal">
        <lane id=":155_13_0" index="0" speed="7.72" length="13.54" shape="1375.73,6561.26 1380.51,6561.03 1383.92,6560.07 1385.96,6558.35 1386.61,6555.89"/>
    </edge>
    <edge id=":155_14" function="internal">
        <lane id=":155_14_0" index="0" speed="20.12" length="23.55" shape="1375.64,6564.45 1398.76,6564.61"/>
        <lane id=":155_14_1" index="1" speed="20.12" length="23.55" shape="1375.55,6567.65 1398.88,6567.81"/>
        <lane id=":155_14_2" index="2" speed="20.12" length="23.55" shape="1375.46,6570.85 1399.01,6571.01"/>
        <lane id=":155_14_3" index="3" speed="20.12" length="23.55" shape="1375.37,6574.05 1399.13,6574.20"/>
        <lane id=":155_14_4" index="4" speed="20.12" length="23.55" shape="1375.29,6577.25 1399.26,6577.40"/>
    </edge>
    <edge id=":155_19" function="internal">
        <lane id=":155_19_0" index="0" speed="11.99" length="32.18" shape="1375.29,6577.25 1383.17,6578.81 1388.83,6582.98 1392.27,6589.78 1393.49,6599.20"/>
    </edge>
    <edge id=":155_20" function="internal">
        <lane id=":155_20_0" index="0" speed="3.65" length="4.67" shape="1375.29,6577.25 1376.46,6578.08 1376.84,6578.89 1376.42,6579.68 1375.20,6580.45"/>
    </edge>
    <edge id=":156_0" function="internal">
        <lane id=":156_0_0" index="0" speed="9.52" length="14.45" shape="1892.97,6593.13 1890.69,6588.73 1888.34,6585.62 1885.92,6583.78 1883.42,6583.22"/>
    </edge>
    <edge id=":156_1" function="internal">
        <lane id=":156_1_0" index="0" speed="13.41" length="43.36" shape="1895.89,6591.83 1891.70,6578.11 1891.06,6566.50 1892.06,6556.74 1892.78,6548.55"/>
        <lane id=":156_1_1" index="1" speed="13.41" length="43.36" shape="1898.82,6590.53 1894.78,6577.26 1894.22,6566.06 1895.25,6556.60 1895.98,6548.53"/>
    </edge>
    <edge id=":156_3" function="internal">
        <lane id=":156_3_0" index="0" speed="11.26" length="38.22" shape="1901.74,6589.23 1898.97,6578.70 1900.82,6570.56 1907.13,6565.30 1917.72,6563.35"/>
        <lane id=":156_3_1" index="1" speed="10.26" length="31.50" shape="1904.66,6587.93 1902.36,6579.24 1903.86,6572.52 1909.03,6568.16 1917.75,6566.55"/>
    </edge>
    <edge id=":156_5" function="internal">
        <lane id=":156_5_0" index="0" speed="6.51" length="11.86" shape="1917.89,6579.35 1913.68,6579.76 1911.05,6580.90 1909.99,6582.75 1910.51,6585.33"/>
    </edge>
    <edge id=":156_6" function="internal">
        <lane id=":156_6_0" index="0" speed="20.12" length="34.80" shape="1917.89,6579.35 1907.62,6579.95 1900.65,6581.15 1893.68,6582.41 1883.42,6583.22"/>
        <lane id=":156_6_1" index="1" speed="20.12" length="34.80" shape="1917.85,6576.15 1907.57,6576.75 1900.58,6577.95 1893.60,6579.21 1883.32,6580.02"/>
        <lane id=":156_6_2" index="2" speed="20.12" length="34.80" shape="1917.82,6572.95 1907.51,6573.55 1900.51,6574.75 1893.52,6576.01 1883.22,6576.82"/>
    </edge>
    <edge id=":156_9" function="internal">
        <lane id=":156_9_0" index="0" speed="12.24" length="34.72" shape="1917.78,6569.75 1908.30,6568.51 1901.51,6564.56 1897.40,6557.90 1895.98,6548.53"/>
    </edge>
    <edge id=":156_10" function="internal">
        <lane id=":156_10_0" index="0" speed="3.65" length="4.67" shape="1917.78,6569.75 1916.58,6568.96 1916.17,6568.16 1916.56,6567.36 1917.75,6566.55"/>
    </edge>
    <edge id=":156_11" function="internal">
        <lane id=":156_11_0" index="0" speed="7.26" length="11.54" shape="1911.98,6548.41 1912.36,6552.17 1913.43,6554.84 1915.19,6556.44 1917.65,6556.95"/>
    </edge>
    <edge id=":156_12" function="internal">
        <lane id=":156_12_0" index="0" speed="17.88" length="37.83" shape="1908.78,6548.44 1908.54,6560.71 1908.17,6570.38 1908.55,6578.31 1910.51,6585.33"/>
        <lane id=":156_12_1" index="1" speed="17.88" length="37.83" shape="1905.58,6548.46 1905.38,6561.20 1905.11,6571.28 1905.58,6579.50 1907.59,6586.63"/>
    </edge>
    <edge id=":156_14" function="internal">
        <lane id=":156_14_0" index="0" speed="12.56" length="35.79" shape="1902.38,6548.48 1901.24,6559.25 1897.65,6567.03 1891.61,6571.82 1883.12,6573.62"/>
        <lane id=":156_14_1" index="1" speed="11.66" length="30.74" shape="1899.18,6548.50 1898.23,6557.90 1895.21,6564.69 1890.14,6568.86 1883.01,6570.43"/>
    </edge>
    <edge id=":156_16" function="internal">
        <lane id=":156_16_0" index="0" speed="7.78" length="13.11" shape="1882.51,6554.43 1887.02,6553.94 1890.23,6552.80 1892.16,6551.00 1892.78,6548.55"/>
    </edge>
    <edge id=":156_17" function="internal">
        <lane id=":156_17_0" index="0" speed="20.12" length="35.21" shape="1882.51,6554.43 1892.95,6554.62 1900.08,6555.55 1907.20,6556.56 1917.65,6556.95"/>
        <lane id=":156_17_1" index="1" speed="20.12" length="35.21" shape="1882.61,6557.63 1893.03,6557.82 1900.14,6558.75 1907.26,6559.75 1917.68,6560.15"/>
        <lane id=":156_17_2" index="2" speed="20.12" length="35.21" shape="1882.71,6560.83 1893.11,6561.02 1900.21,6561.95 1907.31,6562.95 1917.72,6563.35"/>
    </edge>
    <edge id=":156_20" function="internal">
        <lane id=":156_20_0" index="0" speed="15.04" length="37.20" shape="1882.81,6564.03 1891.29,6565.15 1898.73,6569.07 1905.14,6575.80 1910.51,6585.33"/>
        <lane id=":156_20_1" index="1" speed="14.26" length="33.39" shape="1882.91,6567.23 1890.39,6568.25 1897.00,6571.83 1902.73,6577.95 1907.59,6586.63"/>
    </edge>
    <edge id=":156_22" function="internal">
        <lane id=":156_22_0" index="0" speed="3.65" length="4.67" shape="1882.91,6567.23 1884.14,6567.99 1884.56,6568.78 1884.19,6569.59 1883.01,6570.43"/>
    </edge>
    <edge id=":157_0" function="internal">
        <lane id=":157_0_0" index="0" speed="7.91" length="12.00" shape="2096.40,6577.45 2093.97,6578.01 2092.03,6579.65 2090.58,6582.36 2089.62,6586.14"/>
    </edge>
    <edge id=":157_1" function="internal">
        <lane id=":157_1_0" index="0" speed="20.12" length="27.50" shape="2096.40,6577.45 2068.90,6577.74"/>
        <lane id=":157_1_1" index="1" speed="20.12" length="27.50" shape="2096.36,6574.25 2068.86,6574.54"/>
        <lane id=":157_1_2" index="2" speed="20.12" length="27.50" shape="2096.33,6571.05 2068.83,6571.34"/>
    </edge>
    <edge id=":157_4" function="internal">
        <lane id=":157_4_0" index="0" speed="10.56" length="9.96" shape="2096.29,6567.85 2090.56,6566.76 2087.39,6564.13"/>
    </edge>
    <edge id=":157_5" function="internal">
        <lane id=":157_5_0" index="0" speed="3.65" length="4.67" shape="2096.29,6567.85 2095.09,6567.06 2094.68,6566.27 2095.07,6565.46 2096.26,6564.65"/>
    </edge>
    <edge id=":157_18" function="internal">
        <lane id=":157_18_0" index="0" speed="10.56" length="15.57" shape="2087.39,6564.13 2086.44,6563.35 2083.94,6557.62 2083.05,6549.57"/>
    </edge>
    <edge id=":157_6" function="internal">
        <lane id=":157_6_0" index="0" speed="6.78" length="9.90" shape="2089.45,6549.52 2089.89,6551.96 2091.15,6553.70 2093.24,6554.73 2096.16,6555.05"/>
    </edge>
    <edge id=":157_7" function="internal">
        <lane id=":157_7_0" index="0" speed="15.65" length="36.70" shape="2089.45,6549.52 2089.86,6557.38 2090.49,6566.03 2090.64,6575.58 2089.62,6586.14"/>
    </edge>
    <edge id=":157_8" function="internal">
        <lane id=":157_8_0" index="0" speed="11.26" length="29.07" shape="2086.25,6549.55 2085.22,6557.61 2081.97,6563.40 2076.49,6566.91 2068.79,6568.14"/>
    </edge>
    <edge id=":157_9" function="internal">
        <lane id=":157_9_0" index="0" speed="8.67" length="16.81" shape="2068.66,6555.34 2074.97,6554.92 2079.48,6553.82 2082.17,6552.04 2083.05,6549.57"/>
    </edge>
    <edge id=":157_10" function="internal">
        <lane id=":157_10_0" index="0" speed="20.12" length="27.50" shape="2068.66,6555.34 2096.16,6555.05"/>
        <lane id=":157_10_1" index="1" speed="20.12" length="27.50" shape="2068.69,6558.54 2096.19,6558.25"/>
        <lane id=":157_10_2" index="2" speed="20.12" length="27.50" shape="2068.73,6561.74 2096.23,6561.45"/>
    </edge>
    <edge id=":157_13" function="internal">
        <lane id=":157_13_0" index="0" speed="10.78" length="12.61" shape="2068.76,6564.94 2077.17,6566.11 2080.44,6568.62"/>
    </edge>
    <edge id=":157_14" function="internal">
        <lane id=":157_14_0" index="0" speed="3.65" length="4.67" shape="2068.76,6564.94 2069.97,6565.73 2070.38,6566.52 2069.99,6567.33 2068.79,6568.14"/>
    </edge>
    <edge id=":157_19" function="internal">
        <lane id=":157_19_0" index="0" speed="10.78" length="17.56" shape="2080.44,6568.62 2082.06,6569.85 2083.93,6576.17 2083.30,6585.08"/>
    </edge>
    <edge id=":157_15" function="internal">
        <lane id=":157_15_0" index="0" speed="6.16" length="9.05" shape="2073.83,6583.51 2073.89,6580.96 2073.09,6579.15 2071.42,6578.08 2068.90,6577.74"/>
    </edge>
    <edge id=":157_16" function="internal">
        <lane id=":157_16_0" index="0" speed="14.53" length="35.00" shape="2076.99,6584.03 2078.98,6573.11 2080.96,6563.13 2082.47,6554.99 2083.05,6549.57"/>
    </edge>
    <edge id=":157_17" function="internal">
        <lane id=":157_17_0" index="0" speed="11.83" length="27.95" shape="2080.15,6584.56 2082.39,6575.90 2085.82,6569.69 2090.45,6565.94 2096.26,6564.65"/>
    </edge>
    <edge id=":159_0" function="internal">
        <lane id=":159_0_0" index="0" speed="3.65" length="4.67" shape="2888.56,6556.34 2889.77,6557.13 2890.18,6557.92 2889.79,6558.73 2888.60,6559.54"/>
    </edge>
    <edge id=":250_0" function="internal">
        <lane id=":250_0_0" index="0" speed="7.53" length="12.05" shape="1693.14,6589.24 1690.71,6589.89 1688.97,6591.65 1687.90,6594.52 1687.51,6598.50"/>
    </edge>
    <edge id=":250_1" function="internal">
        <lane id=":250_1_0" index="0" speed="20.12" length="24.97" shape="1693.04,6586.05 1685.82,6587.26 1681.10,6589.55 1676.38,6591.76 1669.16,6592.74"/>
        <lane id=":250_1_1" index="1" speed="20.12" length="24.97" shape="1692.94,6582.85 1685.75,6584.06 1681.05,6586.35 1676.35,6588.56 1669.16,6589.54"/>
        <lane id=":250_1_2" index="2" speed="20.12" length="24.97" shape="1692.84,6579.65 1685.68,6580.86 1681.00,6583.15 1676.32,6585.36 1669.17,6586.34"/>
    </edge>
    <edge id=":250_4" function="internal">
        <lane id=":250_4_0" index="0" speed="10.78" length="27.04" shape="1692.74,6576.45 1687.75,6575.25 1684.17,6571.29 1681.97,6564.58 1681.18,6555.10"/>
    </edge>
    <edge id=":250_5" function="internal">
        <lane id=":250_5_0" index="0" speed="3.65" length="4.67" shape="1692.74,6576.45 1691.51,6575.69 1691.09,6574.90 1691.46,6574.09 1692.63,6573.25"/>
    </edge>
    <edge id=":250_6" function="internal">
        <lane id=":250_6_0" index="0" speed="7.01" length="10.83" shape="1684.38,6555.07 1684.89,6557.52 1686.37,6559.24 1688.81,6560.22 1692.23,6560.46"/>
    </edge>
    <edge id=":250_7" function="internal">
        <lane id=":250_7_0" index="0" speed="10.06" length="43.54" shape="1684.38,6555.07 1687.51,6598.50"/>
    </edge>
    <edge id=":250_8" function="internal">
        <lane id=":250_8_0" index="0" speed="11.38" length="7.78" shape="1684.38,6555.07 1683.66,6562.82"/>
    </edge>
    <edge id=":250_20" function="internal">
        <lane id=":250_20_0" index="0" speed="11.38" length="22.22" shape="1683.66,6562.82 1683.50,6564.56 1680.68,6571.33 1675.90,6575.40 1669.18,6576.74"/>
    </edge>
    <edge id=":250_9" function="internal">
        <lane id=":250_9_0" index="0" speed="8.08" length="14.60" shape="1669.19,6560.74 1674.46,6560.40 1678.21,6559.34 1680.45,6557.57 1681.18,6555.10"/>
    </edge>
    <edge id=":250_10" function="internal">
        <lane id=":250_10_0" index="0" speed="20.12" length="23.14" shape="1669.19,6560.74 1692.23,6560.46"/>
        <lane id=":250_10_1" index="1" speed="20.12" length="23.14" shape="1669.19,6563.94 1692.33,6563.66"/>
        <lane id=":250_10_2" index="2" speed="20.12" length="23.14" shape="1669.19,6567.14 1692.43,6566.86"/>
    </edge>
    <edge id=":250_13" function="internal">
        <lane id=":250_13_0" index="0" speed="12.75" length="37.92" shape="1669.18,6570.34 1677.31,6572.11 1683.08,6577.39 1686.48,6586.19 1687.51,6598.50"/>
        <lane id=":250_13_1" index="1" speed="11.88" length="32.78" shape="1669.18,6573.54 1675.90,6575.11 1680.66,6579.78 1683.47,6587.57 1684.31,6598.47"/>
    </edge>
    <edge id=":250_15" function="internal">
        <lane id=":250_15_0" index="0" speed="3.65" length="4.67" shape="1669.18,6573.54 1670.38,6574.35 1670.78,6575.15 1670.38,6575.95 1669.18,6576.74"/>
    </edge>
    <edge id=":250_16" function="internal">
        <lane id=":250_16_0" index="0" speed="6.49" length="9.03" shape="1674.71,6598.37 1674.39,6595.91 1673.35,6594.15 1671.61,6593.10 1669.16,6592.74"/>
        <lane id=":250_16_1" index="1" speed="7.98" length="14.23" shape="1677.91,6598.40 1677.40,6594.53 1675.77,6591.76 1673.03,6590.10 1669.16,6589.54"/>
    </edge>
    <edge id=":250_18" function="internal">
        <lane id=":250_18_0" index="0" speed="10.06" length="43.33" shape="1681.11,6598.43 1681.18,6555.10"/>
    </edge>
    <edge id=":250_19" function="internal">
        <lane id=":250_19_0" index="0" speed="11.65" length="17.62" shape="1681.11,6598.43 1681.93,6587.55 1683.74,6581.09"/>
    </edge>
    <edge id=":250_21" function="internal">
        <lane id=":250_21_0" index="0" speed="11.65" length="12.60" shape="1683.74,6581.09 1684.13,6579.73 1687.69,6574.96 1692.63,6573.25"/>
    </edge>
    <edge id=":252_0" function="internal">
        <lane id=":252_0_0" index="0" speed="6.22" length="9.05" shape="2033.63,6842.33 2032.30,6840.17 2030.63,6839.08 2028.64,6839.03 2026.32,6840.05"/>
    </edge>
    <edge id=":252_1" function="internal">
        <lane id=":252_1_0" index="0" speed="13.41" length="40.06" shape="2036.56,6841.05 2031.60,6829.79 2027.62,6821.64 2023.39,6814.61 2017.67,6806.77"/>
        <lane id=":252_1_1" index="1" speed="13.41" length="40.06" shape="2039.50,6839.76 2034.40,6828.26 2030.29,6819.89 2025.96,6812.72 2020.21,6804.81"/>
        <lane id=":252_1_2" index="2" speed="13.41" length="40.06" shape="2042.43,6838.48 2037.21,6826.72 2032.97,6818.13 2028.54,6810.82 2022.74,6802.86"/>
    </edge>
    <edge id=":252_4" function="internal">
        <lane id=":252_4_0" index="0" speed="14.53" length="6.75" shape="2045.36,6837.20 2043.36,6830.76"/>
    </edge>
    <edge id=":252_19" function="internal">
        <lane id=":252_19_0" index="0" speed="14.53" length="36.87" shape="2043.36,6830.76 2041.39,6824.39 2041.13,6814.13 2042.94,6804.76 2045.14,6794.61"/>
    </edge>
    <edge id=":252_5" function="internal">
        <lane id=":252_5_0" index="0" speed="16.77" length="37.89" shape="2054.61,6796.19 2052.65,6806.30 2051.21,6815.17 2051.35,6823.84 2054.16,6833.36"/>
    </edge>
    <edge id=":252_6" function="internal">
        <lane id=":252_6_0" index="0" speed="14.53" length="53.82" shape="2054.61,6796.19 2051.01,6809.94 2045.09,6821.83 2036.86,6831.87 2026.32,6840.05"/>
        <lane id=":252_6_1" index="1" speed="14.53" length="51.10" shape="2051.45,6795.66 2048.03,6808.74 2042.42,6820.04 2034.62,6829.57 2024.64,6837.33"/>
    </edge>
    <edge id=":252_8" function="internal">
        <lane id=":252_8_0" index="0" speed="9.91" length="17.43" shape="2048.30,6795.13 2044.55,6804.16 2038.34,6808.64"/>
    </edge>
    <edge id=":252_9" function="internal">
        <lane id=":252_9_0" index="0" speed="3.65" length="2.34" shape="2048.30,6795.13 2047.31,6796.19 2046.45,6796.45"/>
    </edge>
    <edge id=":252_20" function="internal">
        <lane id=":252_20_0" index="0" speed="9.91" length="17.67" shape="2038.34,6808.64 2038.00,6808.89 2030.21,6808.67 2022.74,6802.86"/>
    </edge>
    <edge id=":252_21" function="internal">
        <lane id=":252_21_0" index="0" speed="3.65" length="2.34" shape="2046.45,6796.45 2045.73,6795.92 2045.14,6794.61"/>
    </edge>
    <edge id=":252_10" function="internal">
        <lane id=":252_10_0" index="0" speed="5.49" length="9.63" shape="2032.88,6795.05 2035.01,6797.23 2036.71,6797.71 2037.98,6796.49 2038.83,6793.56"/>
    </edge>
    <edge id=":252_11" function="internal">
        <lane id=":252_11_0" index="0" speed="17.88" length="43.20" shape="2032.88,6795.05 2040.51,6805.78 2045.85,6814.99 2050.02,6823.80 2054.16,6833.36"/>
        <lane id=":252_11_1" index="1" speed="17.88" length="43.20" shape="2030.35,6797.00 2037.92,6807.63 2043.12,6816.61 2047.15,6825.19 2051.23,6834.64"/>
        <lane id=":252_11_2" index="2" speed="17.88" length="43.20" shape="2027.81,6798.95 2035.32,6809.48 2040.38,6818.22 2044.28,6826.58 2048.30,6835.92"/>
    </edge>
    <edge id=":252_14" function="internal">