<additional>
    <!-- Default -->
    <vType id="pkw" accel="2.6" decel="4.5" maxSpeed="10.4" minGap="0.9" tau="1.0"/>
</additional>
