<additional>
    <!-- Default -->
    <vType id="pkw" accel="2.6" decel="4.5" maxSpeed="13.39" minGap="2.5" tau="0.9"/>
</additional>
