<additional>
    <!-- Default -->
    <vType id="pkw" length="4.3" width="1.8" maxSpeed="13.39" minGap="0.5" tau="1.0" accel="2.6" decel="4.5" emergencyDecel="9.0" startupDelay="0.0"/>
</additional>
