<additional>
    <!-- Default -->
    <vType id="vehicle" accel="2.6" decel="4.5" maxSpeed="13.39" minGap="1.1" tau="1.0"/>
</additional>
