<?xml version="1.0" encoding="UTF-8"?>

<!-- generated on 2026-03-20T22:58:13.787761-07:00 by Eclipse SUMO duarouter 1.26.0
<duarouterConfiguration xmlns:xsi="http://www.w3.org/2001/XMLSchema-instance" xsi:noNamespaceSchemaLocation="http://sumo.dlr.de/xsd/duarouterConfiguration.xsd">

    <input>
        <net-file value="/home/asurite.ad.asu.edu/frafi1/git_projects/JL-GAT/data/raw_data/ingolstadt1/ingolstadt1.net.xml"/>
        <route-files value="/home/asurite.ad.asu.edu/frafi1/git_projects/JL-GAT/data/raw_data/ingolstadt1/ingolstadt1.trip.xml"/>
    </input>

    <output>
        <output-file value="/home/asurite.ad.asu.edu/frafi1/git_projects/JL-GAT/data/raw_data/ingolstadt1/ingolstadt1.rou.xml"/>
    </output>

</duarouterConfiguration>
-->

<routes xmlns:xsi="http://www.w3.org/2001/XMLSchema-instance" xsi:noNamespaceSchemaLocation="http://sumo.dlr.de/xsd/routes_file.xsd">
    <vType id="vehicle" accel="2.6" decel="4.5" maxSpeed="13.39" minGap="2.5" tau="0.9"/>

    <vType id="default_016" vClass="passenger" color="red"/>
    <vehicle id="carIn105842:1" type="vehicle" depart="57600.20">
        <route edges="653473569#5 164051413 124812857#0"/>
    </vehicle>
    <vehicle id="h8750c1:1" type="vehicle" depart="57608.50">
        <route edges="104010354 124812857#0"/>
    </vehicle>
    <vehicle id="carIn28488:1" type="vehicle" depart="57610.20">
        <route edges="653473569#5 164051413 124812857#0"/>
    </vehicle>
    <vehicle id="carIn21562:1" type="vehicle" depart="57610.80">
        <route edges="201963537#1 -164051413 -653473569#5"/>
    </vehicle>
    <vehicle id="carIn106322:1" type="vehicle" depart="57611.80">
        <route edges="653473569#5 164051413 124812857#0"/>
    </vehicle>
    <vehicle id="carIn28951:1" type="vehicle" depart="57612.70">
        <route edges="201963537#1 -164051413 -653473569#5"/>
    </vehicle>
    <vehicle id="carIn5482:1" type="vehicle" depart="57613.40">
        <route edges="653473569#5 164051413 124812857#0"/>
    </vehicle>
    <vehicle id="carIn36103:1" type="vehicle" depart="57616.00">
        <route edges="653473569#5 164051413 124812857#0"/>
    </vehicle>
    <vehicle id="carIn102997:1" type="vehicle" depart="57618.20">
        <route edges="653473569#5 164051413 124812857#0"/>
    </vehicle>
    <vehicle id="carIn75554:1" type="vehicle" depart="57620.80">
        <route edges="653473569#5 164051413 124812857#0"/>
    </vehicle>
    <vType id="default_015" vClass="passenger" color="red"/>
    <vehicle id="carIn26332:1" type="vehicle" depart="57621.00">
        <route edges="201963537#1 104010475#0 104012170"/>
    </vehicle>
    <vehicle id="carIn115534:1" type="vehicle" depart="57621.40">
        <route edges="201963537#1 104010475#0 104012170"/>
    </vehicle>
    <vehicle id="h15808c1:1" type="vehicle" depart="57621.60">
        <route edges="201963537#1 104010475#0 104012170"/>
    </vehicle>
    <vehicle id="carIn46350:1" type="vehicle" depart="57623.20">
        <route edges="201963537#1 -164051413 -653473569#5"/>
    </vehicle>
    <vehicle id="carIn119141:1" type="vehicle" depart="57623.30">
        <route edges="201963537#1 104010475#0 104012170"/>
    </vehicle>
    <vehicle id="carIn75667:1" type="vehicle" depart="57624.60">
        <route edges="201963537#1 -164051413 -653473569#5"/>
    </vehicle>
    <vehicle id="carIn119185:1" type="vehicle" depart="57625.20">
        <route edges="201963537#1 104010475#0 104012170"/>
    </vehicle>
    <vehicle id="carIn76112:1" type="vehicle" depart="57626.00">
        <route edges="201963537#1 -164051413 -653473569#5"/>
    </vehicle>
    <vehicle id="carIn79970:1" type="vehicle" depart="57626.80">
        <route edges="201963537#1 104010475#0 104012170"/>
    </vehicle>
    <vehicle id="carIn27521:1" type="vehicle" depart="57627.50">
        <route edges="201963537#1 -164051413 -653473569#5"/>
    </vehicle>
    <vType id="random_016" vClass="passenger" color="blue"/>
    <vehicle id="randUni20090:1" type="vehicle" depart="57628.00">
        <route edges="653473569#5 164051413 124812857#0"/>
    </vehicle>
    <vehicle id="carIn27195:1" type="vehicle" depart="57628.10">
        <route edges="201963537#1 104010475#0 104012170"/>
    </vehicle>
    <vehicle id="carIn130142:1" type="vehicle" depart="57629.10">
        <route edges="201963537#1 -164051413 -653473569#5"/>
    </vehicle>
    <vehicle id="randUni34730:1" type="vehicle" depart="57630.60">
        <route edges="201963537#1 -164051413 -653473569#5"/>
    </vehicle>
    <vehicle id="carIn96537:1" type="vehicle" depart="57630.70">
        <route edges="201963537#1 104010475#0 104012170"/>
    </vehicle>
    <vehicle id="h14257c2:1" type="vehicle" depart="57632.20">
        <route edges="201963537#1 -164051413 -653473569#5"/>
    </vehicle>
    <vehicle id="carIn26410:1" type="vehicle" depart="57632.30">
        <route edges="201963537#1 104010475#0 104012170"/>
    </vehicle>
    <vType id="bus" vClass="bus" color="green"/>
    <vehicle id="60R.41" type="vehicle" depart="57633.50">
        <route edges="104010354 124812857#0"/>
    </vehicle>
    <vehicle id="carIn107084:1" type="vehicle" depart="57633.80">
        <route edges="201963537#1 -164051413 -653473569#5"/>
    </vehicle>
    <vehicle id="carIn51024:1" type="vehicle" depart="57634.00">
        <route edges="201963537#1 104010475#0 104012170"/>
    </vehicle>
    <vehicle id="carIn37268:1" type="vehicle" depart="57635.10">
        <route edges="653473569#5 164051413 124812857#0"/>
    </vehicle>
    <vehicle id="carIn77943:1" type="vehicle" depart="57635.40">
        <route edges="201963537#1 -164051413 -653473569#5"/>
    </vehicle>
    <vehicle id="carIn128705:1" type="vehicle" depart="57635.70">
        <route edges="201963537#1 104010475#0 104012170"/>
    </vehicle>
    <vehicle id="carIn13117:1" type="vehicle" depart="57636.60">
        <route edges="104010354 124812857#0"/>
    </vehicle>
    <vehicle id="carIn81046:1" type="vehicle" depart="57637.00">
        <route edges="201963537#1 -164051413 -653473569#5"/>
    </vehicle>
    <vehicle id="h21989c1:1" type="vehicle" depart="57637.30">
        <route edges="201963537#1 104010475#0 104012170"/>
    </vehicle>
    <vehicle id="h15382c1:3" type="vehicle" depart="57639.10">
        <route edges="201963537#1 -164051413 -653473569#5"/>
    </vehicle>
    <vehicle id="carIn20106:1" type="vehicle" depart="57639.50">
        <route edges="104010354 124812857#0"/>
    </vehicle>
    <vehicle id="randUni10474:1" type="vehicle" depart="57640.00">
        <route edges="201963537#1 -164051413 -653473569#5"/>
    </vehicle>
    <vehicle id="carIn56649:1" type="vehicle" depart="57642.20">
        <route edges="201963537#1 -164051413 -653473569#5"/>
    </vehicle>
    <vehicle id="carIn38625:1" type="vehicle" depart="57642.30">
        <route edges="201963537#1 -164051413 -653473569#5"/>
    </vehicle>
    <vehicle id="carIn17767:1" type="vehicle" depart="57643.70">
        <route edges="201963537#1 -164051413 -653473569#5"/>
    </vehicle>
    <vehicle id="carIn77438:1" type="vehicle" depart="57644.20">
        <route edges="201963537#1 -164051413 -653473569#5"/>
    </vehicle>
    <vehicle id="randUni27349:1" type="vehicle" depart="57645.10">
        <route edges="104010354 124812857#0"/>
    </vehicle>
    <vehicle id="carIn48979:1" type="vehicle" depart="57645.20">
        <route edges="201963537#1 -164051413 -653473569#5"/>
    </vehicle>
    <vehicle id="h19804c1:3" type="vehicle" depart="57646.20">
        <route edges="201963537#1 -164051413 -653473569#5"/>
    </vehicle>
    <vehicle id="h20403c1:5" type="vehicle" depart="57646.60">
        <route edges="104010354 124812857#0"/>
    </vehicle>
    <vehicle id="carIn88932:1" type="vehicle" depart="57646.70">
        <route edges="201963537#1 -164051413 -653473569#5"/>
    </vehicle>
    <vehicle id="carIn767:1" type="vehicle" depart="57648.20">
        <route edges="201963537#1 -164051413 -653473569#5"/>
    </vehicle>
    <vehicle id="carIn73466:1" type="vehicle" depart="57648.30">
        <route edges="104010354 124812857#0"/>
    </vehicle>
    <vehicle id="carIn64490:1" type="vehicle" depart="57649.30">
        <route edges="201963537#1 -164051413 -653473569#5"/>
    </vehicle>
    <vehicle id="carIn107842:1" type="vehicle" depart="57650.30">
        <route edges="201963537#1 -164051413 -653473569#5"/>
    </vehicle>
    <vehicle id="carIn3969:1" type="vehicle" depart="57652.50">
        <route edges="201963537#1 -164051413 -653473569#5"/>
    </vehicle>
    <vehicle id="carIn129760:1" type="vehicle" depart="57660.20">
        <route edges="653473569#5 164051413 124812857#0"/>
    </vehicle>
    <vehicle id="carIn129626:1" type="vehicle" depart="57662.40">
        <route edges="653473569#5 164051413 124812857#0"/>
    </vehicle>
    <vehicle id="h21130c2:1" type="vehicle" depart="57663.40">
        <route edges="201963537#1 104010475#0 104012170"/>
    </vehicle>
    <vehicle id="h20539c1:3" type="vehicle" depart="57664.80">
        <route edges="653473569#5 164051413 124812857#0"/>
    </vehicle>
    <vehicle id="h20540c1:1" type="vehicle" depart="57665.10">
        <route edges="201963537#1 -164051413 -653473569#5"/>
    </vehicle>
    <vehicle id="carIn36018:1" type="vehicle" depart="57666.60">
        <route edges="104010354 -164051413 -653473569#5"/>
    </vehicle>
    <vehicle id="60.39" type="vehicle" depart="57668.50">
        <route edges="201963537#1 104010475#0 104012170"/>
    </vehicle>
    <vehicle id="h2215c1:1" type="vehicle" depart="57669.90">
        <route edges="104010354 124812857#0"/>
    </vehicle>
    <vehicle id="carIn100220:1" type="vehicle" depart="57675.30">
        <route edges="201963537#1 104010475#0 104012170"/>
    </vehicle>
    <vehicle id="carIn44740:1" type="vehicle" depart="57675.40">
        <route edges="201963537#1 -164051413 -653473569#5"/>
    </vehicle>
    <vehicle id="carIn102740:1" type="vehicle" depart="57675.50">
        <route edges="104010354 124812857#0"/>
    </vehicle>
    <vehicle id="carIn64859:1" type="vehicle" depart="57677.70">
        <route edges="201963537#1 -164051413 -653473569#5"/>
    </vehicle>
    <vehicle id="carIn35345:1" type="vehicle" depart="57677.90">
        <route edges="104010354 124812857#0"/>
    </vehicle>
    <vehicle id="h3139c1:3" type="vehicle" depart="57683.30">
        <route edges="104010354 124812857#0"/>
    </vehicle>
    <vehicle id="carIn26407:1" type="vehicle" depart="57686.00">
        <route edges="104010354 124812857#0"/>
    </vehicle>
    <vehicle id="carIn91254:1" type="vehicle" depart="57695.90">
        <route edges="653473569#5 164051413 124812857#0"/>
    </vehicle>
    <vehicle id="carIn78692:1" type="vehicle" depart="57702.00">
        <route edges="104010354 124812857#0"/>
    </vehicle>
    <vehicle id="carIn12775:1" type="vehicle" depart="57702.50">
        <route edges="201963537#1 -164051413 -653473569#5"/>
    </vehicle>
    <vehicle id="h15353c2:1" type="vehicle" depart="57712.60">
        <route edges="201963537#1 -164051413 -653473569#5"/>
    </vehicle>
    <vehicle id="carIn96193:1" type="vehicle" depart="57713.10">
        <route edges="104010354 124812857#0"/>
    </vehicle>
    <vehicle id="carIn13362:1" type="vehicle" depart="57715.40">
        <route edges="201963537#1 -164051413 -653473569#5"/>
    </vehicle>
    <vehicle id="carIn98489:1" type="vehicle" depart="57716.40">
        <route edges="104010354 124812857#0"/>
    </vehicle>
    <vehicle id="carIn70484:1" type="vehicle" depart="57723.40">
        <route edges="653473569#5 164051413 104010475#0 104012170"/>
    </vehicle>
    <vehicle id="carIn106797:1" type="vehicle" depart="57725.00">
        <route edges="653473569#5 164051413 124812857#0"/>
    </vehicle>
    <vehicle id="h4745c1:1" type="vehicle" depart="57725.60">
        <route edges="104010354 124812857#0"/>
    </vehicle>
    <vehicle id="carIn99385:1" type="vehicle" depart="57725.70">
        <route edges="201963537#1 -164051413 -653473569#5"/>
    </vehicle>
    <vehicle id="carIn26708:1" type="vehicle" depart="57726.60">
        <route edges="653473569#5 164051413 124812857#0"/>
    </vehicle>
    <vehicle id="carIn48988:1" type="vehicle" depart="57728.10">
        <route edges="653473569#5 164051413 104010475#0 104012170"/>
    </vehicle>
    <vehicle id="carIn34550:1" type="vehicle" depart="57730.40">
        <route edges="653473569#5 164051413 124812857#0"/>
    </vehicle>
    <vehicle id="carIn41791:1" type="vehicle" depart="57732.20">
        <route edges="653473569#5 164051413 124812857#0"/>
    </vehicle>
    <vehicle id="carIn13016:1" type="vehicle" depart="57735.50">
        <route edges="653473569#5 164051413 124812857#0"/>
    </vehicle>
    <vehicle id="carIn124270:1" type="vehicle" depart="57736.00">
        <route edges="104010354 124812857#0"/>
    </vehicle>
    <vehicle id="carIn70477:1" type="vehicle" depart="57737.80">
        <route edges="653473569#5 164051413 124812857#0"/>
    </vehicle>
    <vehicle id="h21189c1:3" type="vehicle" depart="57738.40">
        <route edges="201963537#1 104010475#0 104012170"/>
    </vehicle>
    <vehicle id="h19989c1:1" type="vehicle" depart="57740.10">
        <route edges="201963537#1 -164051413 -653473569#5"/>
    </vehicle>
    <vehicle id="randUni26227:1" type="vehicle" depart="57740.50">
        <route edges="653473569#5 164051413 124812857#0"/>
    </vehicle>
    <vehicle id="carIn92858:1" type="vehicle" depart="57741.90">
        <route edges="201963537#1 -164051413 -653473569#5"/>
    </vehicle>
    <vehicle id="carIn101439:1" type="vehicle" depart="57743.70">
        <route edges="201963537#1 -164051413 -653473569#5"/>
    </vehicle>
    <vehicle id="carIn84229:1" type="vehicle" depart="57745.60">
        <route edges="201963537#1 -164051413 -653473569#5"/>
    </vehicle>
    <vehicle id="carIn7365:1" type="vehicle" depart="57748.10">
        <route edges="201963537#1 104010475#0 104012170"/>
    </vehicle>
    <vehicle id="carIn16842:1" type="vehicle" depart="57750.40">
        <route edges="201963537#1 -164051413 -653473569#5"/>
    </vehicle>
    <vehicle id="randUni5403:1" type="vehicle" depart="57753.50">
        <route edges="104010354 -164051413 -653473569#5"/>
    </vehicle>
    <vehicle id="h10915c2:1" type="vehicle" depart="57756.20">
        <route edges="104010354 -164051413 -653473569#5"/>
    </vehicle>
    <vehicle id="randUni29093:1" type="vehicle" depart="57758.30">
        <route edges="201963537#1 -164051413 -653473569#5"/>
    </vehicle>
    <vehicle id="carIn42651:1" type="vehicle" depart="57759.00">
        <route edges="104010354 124812857#0"/>
    </vehicle>
    <vehicle id="carIn11547:1" type="vehicle" depart="57759.90">
        <route edges="201963537#1 -164051413 -653473569#5"/>
    </vehicle>
    <vehicle id="h18300c2:1" type="vehicle" depart="57760.80">
        <route edges="104010354 124812857#0"/>
    </vehicle>
    <vehicle id="carIn32621:1" type="vehicle" depart="57762.20">
        <route edges="201963537#1 -164051413 -653473569#5"/>
    </vehicle>
    <vehicle id="carIn86816:1" type="vehicle" depart="57768.30">
        <route edges="653473569#5 164051413 124812857#0"/>
    </vehicle>
    <vehicle id="h7328c1:1" type="vehicle" depart="57786.00">
        <route edges="104010354 124812857#0"/>
    </vehicle>
    <vehicle id="carIn25314:1" type="vehicle" depart="57793.70">
        <route edges="201963537#1 -164051413 -653473569#5"/>
    </vehicle>
    <vehicle id="carIn41197:1" type="vehicle" depart="57806.60">
        <route edges="104010354 124812857#0"/>
    </vehicle>
    <vehicle id="h19105c2:3" type="vehicle" depart="57807.40">
        <route edges="201963537#1 -164051413 -653473569#5"/>
    </vehicle>
    <vehicle id="carIn102915:1" type="vehicle" depart="57810.10">
        <route edges="653473569#5 164051413 124812857#0"/>
    </vehicle>
    <vehicle id="randUni33724:1" type="vehicle" depart="57811.80">
        <route edges="653473569#5 164051413 124812857#0"/>
    </vehicle>
    <vehicle id="carIn32135:1" type="vehicle" depart="57812.00">
        <route edges="104010354 124812857#0"/>
    </vehicle>
    <vehicle id="carIn106296:1" type="vehicle" depart="57817.30">
        <route edges="201963537#1 -164051413 -653473569#5"/>
    </vehicle>
    <vehicle id="carIn104643:1" type="vehicle" depart="57818.90">
        <route edges="201963537#1 -164051413 -653473569#5"/>
    </vehicle>
    <vehicle id="carIn100288:1" type="vehicle" depart="57820.60">
        <route edges="104010354 124812857#0"/>
    </vehicle>
    <vehicle id="carIn29531:1" type="vehicle" depart="57825.10">
        <route edges="104010354 124812857#0"/>
    </vehicle>
    <vehicle id="carIn2912:1" type="vehicle" depart="57827.40">
        <route edges="104010354 124812857#0"/>
    </vehicle>
    <vehicle id="carIn49437:1" type="vehicle" depart="57829.50">
        <route edges="104010354 124812857#0"/>
    </vehicle>
    <vehicle id="carIn114105:1" type="vehicle" depart="57831.30">
        <route edges="201963537#1 -164051413 -653473569#5"/>
    </vehicle>
    <vehicle id="carIn72316:1" type="vehicle" depart="57833.10">
        <route edges="201963537#1 -164051413 -653473569#5"/>
    </vehicle>
    <vehicle id="carIn82399:1" type="vehicle" depart="57834.90">
        <route edges="201963537#1 104010475#0 104012170"/>
    </vehicle>
    <vehicle id="h18996c2:1" type="vehicle" depart="57837.20">
        <route edges="104010354 124812857#0"/>
    </vehicle>
    <vehicle id="h3864c1:3" type="vehicle" depart="57843.70">
        <route edges="104010354 124812857#0"/>
    </vehicle>
    <vehicle id="carIn92532:1" type="vehicle" depart="57845.20">
        <route edges="104010354 -164051413 -653473569#5"/>
    </vehicle>
    <vehicle id="randUni14624:1" type="vehicle" depart="57848.40">
        <route edges="104010354 -164051413 -653473569#5"/>
    </vehicle>
    <vehicle id="h10591c1:1" type="vehicle" depart="57850.20">
        <route edges="104010354 -164051413 -653473569#5"/>
    </vehicle>
    <vehicle id="randUni6170:1" type="vehicle" depart="57857.40">
        <route edges="201963537#1 104010475#0 104012170"/>
    </vehicle>
    <vehicle id="h15564c1:1" type="vehicle" depart="57859.10">
        <route edges="201963537#1 104010475#0 104012170"/>
    </vehicle>
    <vehicle id="50R_frequency3.17" type="vehicle" depart="57860.90">
        <route edges="653473569#5 164051413 124812857#0"/>
    </vehicle>
    <vehicle id="carIn64958:1" type="vehicle" depart="57862.10">
        <route edges="201963537#1 -164051413 -653473569#5"/>
    </vehicle>
    <vehicle id="h18601c1:3" type="vehicle" depart="57863.10">
        <route edges="653473569#5 164051413 124812857#0"/>
    </vehicle>
    <vehicle id="h6245c2:1" type="vehicle" depart="57864.50">
        <route edges="653473569#5 164051413 104010475#0 104012170"/>
    </vehicle>
    <vehicle id="h2483c1:1" type="vehicle" depart="57865.80">
        <route edges="104010354 124812857#0"/>
    </vehicle>
    <vehicle id="carIn75793:1" type="vehicle" depart="57883.20">
        <route edges="653473569#5 164051413 104010475#0 104012170"/>
    </vehicle>
    <vehicle id="carIn133015:1" type="vehicle" depart="57884.40">
        <route edges="201963537#1 -164051413 -653473569#5"/>
    </vehicle>
    <vehicle id="h19571c2:3" type="vehicle" depart="57889.40">
        <route edges="25149219#1 391891458#0 -653473569#5"/>
    </vehicle>
    <vehicle id="randUni24217:1" type="vehicle" depart="57896.40">
        <route edges="201963537#1 -164051413 -653473569#5"/>
    </vehicle>
    <vehicle id="randUni13258:1" type="vehicle" depart="57896.40">
        <route edges="201963537#1 104010475#0 104012170"/>
    </vehicle>
    <vehicle id="carIn82741:1" type="vehicle" depart="57900.30">
        <route edges="104010354 124812857#0"/>
    </vehicle>
    <vehicle id="h19249c2:1" type="vehicle" depart="57905.20">
        <route edges="104010354 124812857#0"/>
    </vehicle>
    <vehicle id="h17593c1:1" type="vehicle" depart="57911.50">
        <route edges="201963537#1 -164051413 -653473569#5"/>
    </vehicle>
    <vehicle id="carIn125694:1" type="vehicle" depart="57912.40">
        <route edges="104010354 124812857#0"/>
    </vehicle>
    <vehicle id="h8072c1:3" type="vehicle" depart="57925.90">
        <route edges="653473569#5 164051413 104010475#0 104012170"/>
    </vehicle>
    <vehicle id="h8633c1:3" type="vehicle" depart="57934.40">
        <route edges="104010354 124812857#0"/>
    </vehicle>
    <vehicle id="carIn112995:1" type="vehicle" depart="57941.50">
        <route edges="201963537#1 -164051413 -653473569#5"/>
    </vehicle>
    <vehicle id="carIn116805:1" type="vehicle" depart="57942.70">
        <route edges="104010354 -164051413 -653473569#5"/>
    </vehicle>
    <vehicle id="randUni5976:1" type="vehicle" depart="57946.60">
        <route edges="25149219#1 391891458#0 -653473569#5"/>
    </vehicle>
    <vehicle id="carIn99578:1" type="vehicle" depart="57949.30">
        <route edges="104010354 124812857#0"/>
    </vehicle>
    <vehicle id="carIn23683:1" type="vehicle" depart="57958.30">
        <route edges="104010354 124812857#0"/>
    </vehicle>
    <vehicle id="h15937c1:3" type="vehicle" depart="57962.80">
        <route edges="653473569#5 164051413 124812857#0"/>
    </vehicle>
    <vehicle id="carIn85069:1" type="vehicle" depart="57964.30">
        <route edges="653473569#5 164051413 104010475#0 104012170"/>
    </vehicle>
    <vehicle id="h15472c1:3" type="vehicle" depart="57967.30">
        <route edges="104010354 124812857#0"/>
    </vehicle>
    <vehicle id="carIn84877:1" type="vehicle" depart="57968.60">
        <route edges="653473569#5 164051413 124812857#0"/>
    </vehicle>
    <vehicle id="h14212c1:3" type="vehicle" depart="57970.00">
        <route edges="25149219#1 391891458#0 -653473569#5"/>
    </vehicle>
    <vehicle id="carIn96510:1" type="vehicle" depart="57970.10">
        <route edges="104010354 124812857#0"/>
    </vehicle>
    <vehicle id="carIn9903:1" type="vehicle" depart="57971.10">
        <route edges="653473569#5 164051413 104010475#0 104012170"/>
    </vehicle>
    <vehicle id="carIn119432:1" type="vehicle" depart="57972.00">
        <route edges="104010354 124812857#0"/>
    </vehicle>
    <vehicle id="h19940c1:1" type="vehicle" depart="57972.70">
        <route edges="25149219#1 391891458#0 -653473569#5"/>
    </vehicle>
    <vehicle id="carIn60827:1" type="vehicle" depart="57975.30">
        <route edges="25149219#1 391891458#0 -653473569#5"/>
    </vehicle>
    <vehicle id="h15631c1:1" type="vehicle" depart="57977.90">
        <route edges="25149219#1 391891458#0 -653473569#5"/>
    </vehicle>
    <vehicle id="carIn56192:1" type="vehicle" depart="57980.40">
        <route edges="653473569#5 164051413 104010475#0 104012170"/>
    </vehicle>
    <vehicle id="carIn84735:1" type="vehicle" depart="57980.50">
        <route edges="25149219#1 391891458#0 -653473569#5"/>
    </vehicle>
    <vehicle id="carIn114414:1" type="vehicle" depart="57982.00">
        <route edges="653473569#5 164051413 104010475#0 104012170"/>
    </vehicle>
    <vehicle id="carIn67360:1" type="vehicle" depart="57983.40">
        <route edges="201963537#1 -164051413 -653473569#5"/>
    </vehicle>
    <vehicle id="carIn12479:1" type="vehicle" depart="57993.60">
        <route edges="104010354 124812857#0"/>
    </vehicle>
    <vehicle id="h20688c2:1" type="vehicle" depart="57998.40">
        <route edges="25149219#1 391891458#0 -653473569#5"/>
    </vehicle>
    <vehicle id="carIn41392:1" type="vehicle" depart="58002.10">
        <route edges="104010354 124812857#0"/>
    </vehicle>
    <vehicle id="h7703c2:3" type="vehicle" depart="58003.40">
        <route edges="25149219#1 391891458#0 164051413 104010475#0 104012170"/>
    </vehicle>
    <vehicle id="randUni11417:1" type="vehicle" depart="58009.40">
        <route edges="201963537#1 -164051413 -653473569#5"/>
    </vehicle>
    <vehicle id="carIn72005:1" type="vehicle" depart="58012.10">
        <route edges="25149219#1 391891458#0 -653473569#5"/>
    </vehicle>
    <vehicle id="carIn68143:1" type="vehicle" depart="58014.60">
        <route edges="25149219#1 391891458#0 -653473569#5"/>
    </vehicle>
    <vehicle id="carIn11789:1" type="vehicle" depart="58017.10">
        <route edges="25149219#1 391891458#0 -653473569#5"/>
    </vehicle>
    <vehicle id="h1498c1:1" type="vehicle" depart="58018.40">
        <route edges="653473569#5 164051413 124812857#0"/>
    </vehicle>
    <vehicle id="carIn7612:1" type="vehicle" depart="58019.60">
        <route edges="25149219#1 391891458#0 -653473569#5"/>
    </vehicle>
    <vehicle id="carIn39729:1" type="vehicle" depart="58020.90">
        <route edges="104010354 124812857#0"/>
    </vehicle>
    <vehicle id="carIn131497:1" type="vehicle" depart="58022.40">
        <route edges="201963537#1 -164051413 -653473569#5"/>
    </vehicle>
    <vehicle id="carIn127325:1" type="vehicle" depart="58023.00">
        <route edges="653473569#5 164051413 124812857#0"/>
    </vehicle>
    <vehicle id="h21908c1:3" type="vehicle" depart="58024.10">
        <route edges="104010354 124812857#0"/>
    </vehicle>
    <vehicle id="h22816c2:3" type="vehicle" depart="58025.90">
        <route edges="104010354 124812857#0"/>
    </vehicle>
    <vehicle id="h2510c1:1" type="vehicle" depart="58028.20">
        <route edges="104010354 124812857#0"/>
    </vehicle>
    <vehicle id="randUni3712:1" type="vehicle" depart="58030.60">
        <route edges="104010354 124812857#0"/>
    </vehicle>
    <vehicle id="carIn38599:1" type="vehicle" depart="58037.80">
        <route edges="653473569#5 164051413 124812857#0"/>
    </vehicle>
    <vehicle id="randUni2621:1" type="vehicle" depart="58045.00">
        <route edges="653473569#5 164051413 124812857#0"/>
    </vehicle>
    <vehicle id="carIn37367:1" type="vehicle" depart="58053.80">
        <route edges="653473569#5 164051413 124812857#0"/>
    </vehicle>
    <vehicle id="carIn79899:1" type="vehicle" depart="58055.10">
        <route edges="104010354 124812857#0"/>
    </vehicle>
    <vehicle id="carIn38141:1" type="vehicle" depart="58058.10">
        <route edges="653473569#5 164051413 104010475#0 104012170"/>
    </vehicle>
    <vehicle id="carIn53610:1" type="vehicle" depart="58059.40">
        <route edges="104010354 124812857#0"/>
    </vehicle>
    <vehicle id="carIn76776:1" type="vehicle" depart="58059.70">
        <route edges="653473569#5 164051413 104010475#0 104012170"/>
    </vehicle>
    <vehicle id="carIn20383:1" type="vehicle" depart="58060.30">
        <route edges="104010354 124812857#0"/>
    </vehicle>
    <vehicle id="carIn68993:1" type="vehicle" depart="58062.40">
        <route edges="104010354 124812857#0"/>
    </vehicle>
    <vehicle id="carIn24856:1" type="vehicle" depart="58063.00">
        <route edges="25149219#1 391891458#0 -653473569#5"/>
    </vehicle>
    <vehicle id="carIn10740:1" type="vehicle" depart="58064.10">
        <route edges="104010354 124812857#0"/>
    </vehicle>
    <vehicle id="carIn98213:1" type="vehicle" depart="58065.70">
        <route edges="25149219#1 391891458#0 -653473569#5"/>
    </vehicle>
    <vehicle id="h923c1:1" type="vehicle" depart="58068.20">
        <route edges="25149219#1 391891458#0 -653473569#5"/>
    </vehicle>
    <vehicle id="randUni10337:1" type="vehicle" depart="58069.40">
        <route edges="201963537#1 -164051413 -653473569#5"/>
    </vehicle>
    <vehicle id="carIn127284:1" type="vehicle" depart="58070.60">
        <route edges="653473569#5 164051413 104010475#0 104012170"/>
    </vehicle>
    <vehicle id="carIn127301:1" type="vehicle" depart="58070.80">
        <route edges="25149219#1 391891458#0 -653473569#5"/>
    </vehicle>
    <vehicle id="h10915c1:1" type="vehicle" depart="58072.40">
        <route edges="201963537#1 -164051413 -653473569#5"/>
    </vehicle>
    <vehicle id="carIn32403:1" type="vehicle" depart="58073.40">
        <route edges="25149219#1 391891458#0 -653473569#5"/>
    </vehicle>
    <vehicle id="carIn17428:1" type="vehicle" depart="58087.00">
        <route edges="104010354 124812857#0"/>
    </vehicle>
    <vehicle id="carIn90208:1" type="vehicle" depart="58089.60">
        <route edges="104010354 124812857#0"/>
    </vehicle>
    <vehicle id="carIn19971:1" type="vehicle" depart="58095.10">
        <route edges="104010354 124812857#0"/>
    </vehicle>
    <vehicle id="carIn116330:1" type="vehicle" depart="58097.60">
        <route edges="104010354 124812857#0"/>
    </vehicle>
    <vehicle id="carIn62536:1" type="vehicle" depart="58100.20">
        <route edges="104010354 124812857#0"/>
    </vehicle>
    <vehicle id="carIn29260:1" type="vehicle" depart="58102.80">
        <route edges="25149219#1 391891458#0 -653473569#5"/>
    </vehicle>
    <vehicle id="carIn39560:1" type="vehicle" depart="58102.80">
        <route edges="104010354 124812857#0"/>
    </vehicle>
    <vehicle id="carIn52219:1" type="vehicle" depart="58105.10">
        <route edges="25149219#1 391891458#0 -653473569#5"/>
    </vehicle>
    <vehicle id="carIn123383:1" type="vehicle" depart="58114.00">
        <route edges="25149219#1 391891458#0 -653473569#5"/>
    </vehicle>
    <vehicle id="carIn68387:1" type="vehicle" depart="58115.30">
        <route edges="104010354 124812857#0"/>
    </vehicle>
    <vehicle id="h21566c2:1" type="vehicle" depart="58116.50">
        <route edges="25149219#1 391891458#0 -653473569#5"/>
    </vehicle>
    <vehicle id="h21004c2:1" type="vehicle" depart="58119.00">
        <route edges="25149219#1 391891458#0 -653473569#5"/>
    </vehicle>
    <vehicle id="carIn88113:1" type="vehicle" depart="58121.50">
        <route edges="25149219#1 391891458#0 -653473569#5"/>
    </vehicle>
    <vehicle id="carIn3522:1" type="vehicle" depart="58124.00">
        <route edges="25149219#1 391891458#0 -653473569#5"/>
    </vehicle>