<configuration>
  <input>
    <net-file value="ingolstadt1.net.xml" />
	<route-files value="ingolstadt1.rou.xml" />
    <additional-files value="default.add.xml" />
  </input>
  <time>
    <begin value="57600" />
    <end value="61200" />
  </time>
  <processing>
    <time-to-teleport value="-1"/>
  </processing>
</configuration>
