<additional>
    <!-- V4: Snow -->
    <vType id="vehicle" maxSpeed="13.39" minGap="2.5" tau="1.5" accel="0.5" decel="1.5" emergencyDecel="2.0" startupDelay="0.5"/>
</additional>
