<additional>
    <!-- V2: Heavy Vehicles -->
    <vType id="vehicle" maxSpeed="13.39" minGap="2.5" tau="1.5" accel="1.0" decel="2.5" emergencyDecel="6.0" startupDelay="0.75"/>
</additional>
