<?xml version="1.0" encoding="UTF-8"?>

<!-- generated on 2025-07-23 15:19:48 by Eclipse SUMO netedit Version 1.23.1
<neteditConfiguration xmlns:xsi="http://www.w3.org/2001/XMLSchema-instance" xsi:noNamespaceSchemaLocation="http://sumo.dlr.de/xsd/neteditConfiguration.xsd">

    <input>
        <sumo-net-file value="tempe_cut.net.xml"/>
    </input>

    <output>
        <output-file value="tempe_cut.net.xml"/>
    </output>

    <processing>
        <geometry.min-radius.fix.railways value="false"/>
        <geometry.avoid-overlap value="false"/>
        <geometry.max-grade.fix value="false"/>
        <offset.disable-normalization value="true"/>
        <lefthand value="0"/>
    </processing>

    <junctions>
        <no-turnarounds value="true"/>
        <junctions.corner-detail value="5"/>
        <junctions.limit-turn-speed value="5.50"/>
        <rectangular-lane-cut value="0"/>
    </junctions>

    <pedestrian>
        <walkingareas value="0"/>
    </pedestrian>

</neteditConfiguration>
-->

<net version="1.20" junctionCornerDetail="5" limitTurnSpeed="5.50" avoidOverlap="0" xmlns:xsi="http://www.w3.org/2001/XMLSchema-instance" xsi:noNamespaceSchemaLocation="http://sumo.dlr.de/xsd/net_file.xsd">

    <location netOffset="-408512.79,-3687071.16" convBoundary="1063.67,7655.06,4537.70,10596.85" origBoundary="-111.984046,33.319046,-111.878946,33.461056" projParameter="+proj=utm +zone=12 +ellps=WGS84 +datum=WGS84 +units=m +no_defs"/>

    <edge id=":104_0" function="internal">
        <lane id=":104_0_0" index="0" speed="7.33" length="11.73" shape="2125.07,9395.68 2124.69,9391.83 2123.61,9389.09 2121.85,9387.46 2119.39,9386.93"/>
    </edge>
    <edge id=":104_1" function="internal">
        <lane id=":104_1_0" index="0" speed="17.88" length="24.00" shape="2125.07,9395.68 2124.86,9371.68"/>
        <lane id=":104_1_1" index="1" speed="17.88" length="24.00" shape="2128.27,9395.65 2128.06,9371.65"/>
    </edge>
    <edge id=":104_3" function="internal">
        <lane id=":104_3_0" index="0" speed="10.96" length="13.62" shape="2131.47,9395.62 2132.78,9390.36 2136.79,9386.58 2139.32,9385.71"/>
    </edge>
    <edge id=":104_16" function="internal">
        <lane id=":104_16_0" index="0" speed="10.96" length="13.92" shape="2139.32,9385.71 2143.52,9384.27 2152.96,9383.43"/>
    </edge>
    <edge id=":104_4" function="internal">
        <lane id=":104_4_0" index="0" speed="6.51" length="9.03" shape="2153.02,9389.83 2150.58,9390.20 2148.84,9391.27 2147.80,9393.03 2147.47,9395.48"/>
    </edge>
    <edge id=":104_5" function="internal">
        <lane id=":104_5_0" index="0" speed="13.41" length="33.76" shape="2153.02,9389.83 2144.25,9389.41 2134.33,9388.40 2125.35,9387.38 2119.39,9386.93"/>
    </edge>
    <edge id=":104_6" function="internal">
        <lane id=":104_6_0" index="0" speed="11.39" length="12.50" shape="2152.99,9386.63 2143.54,9385.77 2140.76,9384.62"/>
    </edge>
    <edge id=":104_7" function="internal">
        <lane id=":104_7_0" index="0" speed="3.65" length="4.67" shape="2152.99,9386.63 2151.79,9385.84 2151.38,9385.04 2151.77,9384.24 2152.96,9383.43"/>
    </edge>
    <edge id=":104_17" function="internal">
        <lane id=":104_17_0" index="0" speed="11.39" length="17.35" shape="2140.76,9384.62 2136.76,9382.98 2132.67,9378.26 2131.26,9371.62"/>
    </edge>
    <edge id=":104_8" function="internal">
        <lane id=":104_8_0" index="0" speed="9.26" length="19.35" shape="2140.86,9371.54 2141.65,9376.78 2143.94,9380.51 2147.71,9382.73 2152.96,9383.43"/>
    </edge>
    <edge id=":104_9" function="internal">
        <lane id=":104_9_0" index="0" speed="17.88" length="25.11" shape="2140.86,9371.54 2141.92,9378.77 2144.17,9383.51 2146.41,9388.25 2147.47,9395.48"/>
        <lane id=":104_9_1" index="1" speed="17.88" length="25.11" shape="2137.66,9371.57 2138.72,9378.80 2140.97,9383.54 2143.21,9388.28 2144.27,9395.51"/>
    </edge>
    <edge id=":104_11" function="internal">
        <lane id=":104_11_0" index="0" speed="10.36" length="12.07" shape="2134.46,9371.60 2133.57,9378.25 2130.86,9382.87"/>
    </edge>
    <edge id=":104_18" function="internal">
        <lane id=":104_18_0" index="0" speed="10.36" length="12.44" shape="2130.86,9382.87 2130.76,9383.03 2126.04,9385.92 2119.39,9386.93"/>
    </edge>
    <edge id=":104_12" function="internal">
        <lane id=":104_12_0" index="0" speed="6.51" length="9.03" shape="2119.31,9377.33 2121.76,9376.96 2123.50,9375.89 2124.53,9374.14 2124.86,9371.68"/>
    </edge>
    <edge id=":104_13" function="internal">
        <lane id=":104_13_0" index="0" speed="13.41" length="33.77" shape="2119.34,9380.53 2130.22,9380.93 2139.90,9381.95 2147.71,9382.98 2152.96,9383.43"/>
    </edge>
    <edge id=":104_14" function="internal">
        <lane id=":104_14_0" index="0" speed="9.84" length="8.17" shape="2119.37,9383.73 2126.02,9384.42 2127.36,9385.04"/>
    </edge>
    <edge id=":104_15" function="internal">
        <lane id=":104_15_0" index="0" speed="3.65" length="4.67" shape="2119.37,9383.73 2120.57,9384.52 2120.98,9385.32 2120.59,9386.12 2119.39,9386.93"/>
    </edge>
    <edge id=":104_19" function="internal">
        <lane id=":104_19_0" index="0" speed="9.84" length="13.83" shape="2127.36,9385.04 2130.79,9386.63 2133.68,9390.35 2134.67,9395.60"/>
    </edge>
    <edge id=":105_0" function="internal">
        <lane id=":105_0_0" index="0" speed="6.36" length="9.73" shape="2114.70,8597.41 2114.31,8594.51 2113.21,8592.60 2111.38,8591.67 2108.83,8591.73"/>
    </edge>
    <edge id=":105_1" function="internal">
        <lane id=":105_1_0" index="0" speed="20.12" length="23.29" shape="2117.90,8597.38 2118.34,8590.29 2119.39,8585.26 2120.44,8580.53 2120.87,8574.34"/>
        <lane id=":105_1_1" index="1" speed="20.12" length="23.29" shape="2121.10,8597.35 2121.54,8590.26 2122.59,8585.22 2123.64,8580.49 2124.07,8574.31"/>
    </edge>
    <edge id=":105_3" function="internal">
        <lane id=":105_3_0" index="0" speed="9.84" length="9.84" shape="2124.30,8597.32 2125.21,8592.07 2127.90,8588.45"/>
    </edge>
    <edge id=":105_16" function="internal">
        <lane id=":105_16_0" index="0" speed="9.84" length="12.15" shape="2127.90,8588.45 2128.02,8588.29 2132.75,8586.00 2139.40,8585.19"/>
    </edge>
    <edge id=":105_4" function="internal">
        <lane id=":105_4_0" index="0" speed="6.51" length="9.03" shape="2139.45,8591.59 2137.01,8591.96 2135.27,8593.03 2134.23,8594.78 2133.90,8597.24"/>
    </edge>
    <edge id=":105_5" function="internal">
        <lane id=":105_5_0" index="0" speed="13.41" length="30.64" shape="2139.45,8591.59 2131.14,8591.52 2122.24,8591.34 2114.28,8591.33 2108.83,8591.73"/>
    </edge>
    <edge id=":105_6" function="internal">
        <lane id=":105_6_0" index="0" speed="10.21" length="7.34" shape="2139.42,8588.39 2132.77,8587.56 2132.21,8587.25"/>
    </edge>
    <edge id=":105_7" function="internal">
        <lane id=":105_7_0" index="0" speed="3.65" length="4.67" shape="2139.42,8588.39 2138.22,8587.60 2137.81,8586.80 2138.20,8586.00 2139.40,8585.19"/>
    </edge>
    <edge id=":105_17" function="internal">
        <lane id=":105_17_0" index="0" speed="10.21" length="16.40" shape="2132.21,8587.25 2127.99,8584.94 2125.09,8580.52 2124.07,8574.31"/>
    </edge>
    <edge id=":105_8" function="internal">
        <lane id=":105_8_0" index="0" speed="7.88" length="13.71" shape="2133.67,8574.20 2134.07,8579.03 2135.16,8582.47 2136.94,8584.52 2139.40,8585.19"/>
    </edge>
    <edge id=":105_9" function="internal">
        <lane id=":105_9_0" index="0" speed="20.12" length="23.03" shape="2133.67,8574.20 2133.90,8597.24"/>
        <lane id=":105_9_1" index="1" speed="20.12" length="23.03" shape="2130.47,8574.24 2130.70,8597.27"/>
    </edge>
    <edge id=":105_11" function="internal">
        <lane id=":105_11_0" index="0" speed="11.81" length="6.42" shape="2127.27,8574.27 2126.18,8580.60"/>
    </edge>
    <edge id=":105_18" function="internal">
        <lane id=":105_18_0" index="0" speed="11.81" length="21.42" shape="2126.18,8580.60 2122.74,8585.62 2116.96,8589.33 2108.83,8591.73"/>
    </edge>
    <edge id=":105_12" function="internal">
        <lane id=":105_12_0" index="0" speed="9.30" length="16.93" shape="2107.06,8582.29 2113.12,8580.82 2117.45,8579.00 2120.03,8576.84 2120.87,8574.34"/>
    </edge>
    <edge id=":105_13" function="internal">
        <lane id=":105_13_0" index="0" speed="13.41" length="31.84" shape="2107.65,8585.44 2118.13,8584.24 2127.18,8584.29 2134.40,8584.86 2139.40,8585.19"/>
    </edge>
    <edge id=":105_14" function="internal">
        <lane id=":105_14_0" index="0" speed="9.78" length="13.76" shape="2108.24,8588.58 2116.63,8587.78 2121.87,8588.81"/>
    </edge>
    <edge id=":105_15" function="internal">
        <lane id=":105_15_0" index="0" speed="3.65" length="4.67" shape="2108.24,8588.58 2109.57,8589.15 2110.11,8589.86 2109.87,8590.72 2108.83,8591.73"/>
    </edge>
    <edge id=":105_19" function="internal">
        <lane id=":105_19_0" index="0" speed="9.78" length="10.91" shape="2121.87,8588.81 2122.63,8588.96 2126.26,8592.13 2127.50,8597.30"/>
    </edge>
    <edge id=":109_0" function="internal">
        <lane id=":109_0_0" index="0" speed="7.95" length="14.05" shape="2121.54,9002.78 2120.96,8998.96 2119.31,8996.25 2116.57,8994.65 2112.76,8994.16"/>
    </edge>
    <edge id=":109_1" function="internal">
        <lane id=":109_1_0" index="0" speed="19.00" length="27.37" shape="2121.54,9002.78 2120.97,8994.71 2119.82,8989.24 2118.67,8983.76 2118.10,8975.69"/>
        <lane id=":109_1_1" index="1" speed="19.00" length="27.37" shape="2124.74,9002.75 2124.17,8994.68 2123.02,8989.21 2121.87,8983.74 2121.30,8975.66"/>
    </edge>
    <edge id=":109_3" function="internal">
        <lane id=":109_3_0" index="0" speed="10.36" length="12.07" shape="2127.94,9002.72 2128.83,8996.07 2131.54,8991.45"/>
    </edge>
    <edge id=":109_18" function="internal">
        <lane id=":109_18_0" index="0" speed="10.36" length="12.44" shape="2131.54,8991.45 2131.64,8991.29 2136.36,8988.40 2143.01,8987.39"/>
    </edge>
    <edge id=":109_4" function="internal">
        <lane id=":109_4_0" index="0" speed="6.51" length="9.03" shape="2143.09,8996.99 2140.64,8997.36 2138.90,8998.43 2137.87,9000.18 2137.54,9002.64"/>
    </edge>
    <edge id=":109_5" function="internal">
        <lane id=":109_5_0" index="0" speed="14.53" length="30.51" shape="2143.09,8996.99 2133.43,8996.58 2126.05,8995.57 2119.60,8994.56 2112.76,8994.16"/>
        <lane id=":109_5_1" index="1" speed="14.53" length="30.51" shape="2143.06,8993.79 2133.40,8993.38 2126.01,8992.37 2119.56,8991.36 2112.71,8990.97"/>
    </edge>
    <edge id=":109_7" function="internal">
        <lane id=":109_7_0" index="0" speed="10.35" length="7.08" shape="2143.03,8990.59 2136.38,8989.70 2136.06,8989.52"/>
    </edge>
    <edge id=":109_8" function="internal">
        <lane id=":109_8_0" index="0" speed="3.65" length="4.67" shape="2143.03,8990.59 2141.83,8989.80 2141.42,8989.00 2141.81,8988.20 2143.01,8987.39"/>
    </edge>
    <edge id=":109_19" function="internal">
        <lane id=":109_19_0" index="0" speed="10.35" length="17.37" shape="2136.06,8989.52 2131.60,8986.91 2128.71,8982.21 2127.70,8975.61"/>
    </edge>
    <edge id=":109_9" function="internal">
        <lane id=":109_9_0" index="0" speed="7.31" length="11.66" shape="2137.30,8975.52 2137.68,8979.33 2138.76,8982.05 2140.52,8983.67 2142.98,8984.19"/>
    </edge>
    <edge id=":109_10" function="internal">
        <lane id=":109_10_0" index="0" speed="19.00" length="27.12" shape="2137.30,8975.52 2137.54,9002.64"/>
        <lane id=":109_10_1" index="1" speed="19.00" length="27.12" shape="2134.10,8975.55 2134.34,9002.67"/>
    </edge>
    <edge id=":109_12" function="internal">
        <lane id=":109_12_0" index="0" speed="10.89" length="13.73" shape="2130.90,8975.58 2129.81,8982.20 2126.42,8986.98 2125.39,8987.51"/>
    </edge>
    <edge id=":109_20" function="internal">
        <lane id=":109_20_0" index="0" speed="10.89" length="13.33" shape="2125.39,8987.51 2120.72,8989.90 2112.71,8990.97"/>
    </edge>
    <edge id=":109_13" function="internal">
        <lane id=":109_13_0" index="0" speed="6.52" length="9.03" shape="2112.56,8981.37 2115.00,8980.98 2116.74,8979.90 2117.77,8978.14 2118.10,8975.69"/>
    </edge>
    <edge id=":109_14" function="internal">
        <lane id=":109_14_0" index="0" speed="14.53" length="30.58" shape="2112.56,8981.37 2122.23,8981.72 2129.64,8982.73 2136.11,8983.75 2142.98,8984.19"/>
        <lane id=":109_14_1" index="1" speed="14.53" length="30.58" shape="2112.61,8984.57 2122.28,8984.92 2129.68,8985.92 2136.15,8986.95 2143.01,8987.39"/>
    </edge>
    <edge id=":109_16" function="internal">
        <lane id=":109_16_0" index="0" speed="10.84" length="9.32" shape="2112.66,8987.77 2120.69,8988.59 2121.81,8989.13"/>
    </edge>
    <edge id=":109_17" function="internal">
        <lane id=":109_17_0" index="0" speed="3.65" length="4.67" shape="2112.66,8987.77 2113.87,8988.55 2114.28,8989.34 2113.89,8990.15 2112.71,8990.97"/>
    </edge>
    <edge id=":109_21" function="internal">
        <lane id=":109_21_0" index="0" speed="10.84" length="17.75" shape="2121.81,8989.13 2126.45,8991.36 2129.94,8996.06 2131.14,9002.70"/>
    </edge>
    <edge id=":110_0" function="internal">
        <lane id=":110_0_0" index="0" speed="7.33" length="11.73" shape="2926.09,8995.55 2925.71,8991.71 2924.63,8988.97 2922.87,8987.33 2920.41,8986.80"/>
    </edge>
    <edge id=":110_1" function="internal">
        <lane id=":110_1_0" index="0" speed="15.65" length="27.20" shape="2926.09,8995.55 2925.85,8968.35"/>
    </edge>
    <edge id=":110_2" function="internal">
        <lane id=":110_2_0" index="0" speed="10.36" length="8.26" shape="2929.29,8995.52 2930.18,8988.87 2930.97,8987.53"/>
    </edge>
    <edge id=":110_16" function="internal">
        <lane id=":110_16_0" index="0" speed="10.36" length="16.25" shape="2930.97,8987.53 2932.99,8984.09 2937.71,8981.20 2944.36,8980.19"/>
    </edge>
    <edge id=":110_3" function="internal">
        <lane id=":110_3_0" index="0" speed="8.10" length="14.57" shape="2944.44,8989.79 2939.19,8990.18 2935.45,8991.27 2933.22,8993.04 2932.49,8995.50"/>
    </edge>
    <edge id=":110_4" function="internal">
        <lane id=":110_4_0" index="0" speed="15.65" length="24.27" shape="2944.44,8989.79 2936.99,8989.35 2931.64,8988.30 2926.68,8987.25 2920.41,8986.80"/>
        <lane id=":110_4_1" index="1" speed="15.65" length="24.27" shape="2944.41,8986.59 2936.96,8986.15 2931.61,8985.10 2926.66,8984.05 2920.38,8983.60"/>
    </edge>
    <edge id=":110_6" function="internal">
        <lane id=":110_6_0" index="0" speed="10.36" length="7.35" shape="2944.38,8983.39 2937.73,8982.50 2937.18,8982.18"/>
    </edge>
    <edge id=":110_7" function="internal">
        <lane id=":110_7_0" index="0" speed="3.65" length="4.67" shape="2944.38,8983.39 2943.18,8982.60 2942.77,8981.80 2943.16,8981.00 2944.36,8980.19"/>
    </edge>
    <edge id=":110_17" function="internal">
        <lane id=":110_17_0" index="0" speed="10.36" length="17.17" shape="2937.18,8982.18 2932.95,8979.69 2930.06,8974.97 2929.05,8968.32"/>
    </edge>
    <edge id=":110_8" function="internal">
        <lane id=":110_8_0" index="0" speed="7.33" length="11.73" shape="2938.65,8968.24 2939.03,8972.09 2940.11,8974.83 2941.87,8976.46 2944.33,8976.99"/>
    </edge>
    <edge id=":110_9" function="internal">
        <lane id=":110_9_0" index="0" speed="15.65" length="27.42" shape="2935.45,8968.27 2935.03,8977.60 2934.00,8985.14 2932.95,8991.06 2932.49,8995.50"/>
    </edge>
    <edge id=":110_10" function="internal">
        <lane id=":110_10_0" index="0" speed="9.84" length="12.79" shape="2932.25,8968.30 2931.56,8974.95 2929.35,8979.72 2928.69,8980.24"/>
    </edge>
    <edge id=":110_18" function="internal">
        <lane id=":110_18_0" index="0" speed="9.84" length="9.21" shape="2928.69,8980.24 2925.63,8982.61 2920.38,8983.60"/>
    </edge>
    <edge id=":110_11" function="internal">
        <lane id=":110_11_0" index="0" speed="6.51" length="9.03" shape="2920.30,8974.00 2922.75,8973.63 2924.49,8972.57 2925.52,8970.81 2925.85,8968.35"/>
    </edge>
    <edge id=":110_12" function="internal">
        <lane id=":110_12_0" index="0" speed="15.65" length="24.27" shape="2920.30,8974.00 2927.75,8974.44 2933.10,8975.49 2938.06,8976.54 2944.33,8976.99"/>
        <lane id=":110_12_1" index="1" speed="15.65" length="24.27" shape="2920.33,8977.20 2927.78,8977.64 2933.13,8978.69 2938.08,8979.74 2944.36,8980.19"/>
    </edge>
    <edge id=":110_14" function="internal">
        <lane id=":110_14_0" index="0" speed="9.84" length="5.46" shape="2920.36,8980.40 2925.61,8981.31 2925.72,8981.38"/>
    </edge>
    <edge id=":110_15" function="internal">
        <lane id=":110_15_0" index="0" speed="3.65" length="4.67" shape="2920.36,8980.40 2921.56,8981.19 2921.97,8981.99 2921.58,8982.79 2920.38,8983.60"/>
    </edge>
    <edge id=":110_19" function="internal">
        <lane id=":110_19_0" index="0" speed="9.84" length="16.53" shape="2925.72,8981.38 2929.39,8984.12 2931.68,8988.85 2932.49,8995.50"/>
    </edge>
    <edge id=":111_0" function="internal">
        <lane id=":111_0_0" index="0" speed="6.62" length="9.20" shape="4102.15,8979.57 4099.61,8979.90 4097.78,8980.93 4096.65,8982.67 4096.22,8985.10"/>
    </edge>
    <edge id=":111_1" function="internal">
        <lane id=":111_1_0" index="0" speed="13.41" length="33.61" shape="4102.16,8976.37 4068.70,8973.28"/>
    </edge>
    <edge id=":111_2" function="internal">
        <lane id=":111_2_0" index="0" speed="10.37" length="14.82" shape="4102.18,8973.17 4095.54,8972.19 4090.81,8969.32 4089.49,8967.10"/>
    </edge>
    <edge id=":111_3" function="internal">
        <lane id=":111_3_0" index="0" speed="3.65" length="4.67" shape="4102.18,8973.17 4100.98,8972.36 4100.59,8971.56 4100.99,8970.76 4102.19,8969.97"/>
    </edge>
    <edge id=":111_16" function="internal">
        <lane id=":111_16_0" index="0" speed="10.37" length="9.67" shape="4089.49,8967.10 4087.98,8964.56 4087.04,8957.92"/>
    </edge>
    <edge id=":111_4" function="internal">
        <lane id=":111_4_0" index="0" speed="6.51" length="9.03" shape="4096.64,8957.94 4096.99,8960.39 4098.03,8962.15 4099.78,8963.20 4102.23,8963.57"/>
    </edge>
    <edge id=":111_5" function="internal">
        <lane id=":111_5_0" index="0" speed="13.41" length="27.12" shape="4096.64,8957.94 4096.22,8985.10"/>
        <lane id=":111_5_1" index="1" speed="13.41" length="27.12" shape="4093.44,8957.93 4093.02,8985.00"/>
    </edge>
    <edge id=":111_7" function="internal">
        <lane id=":111_7_0" index="0" speed="11.44" length="15.23" shape="4090.24,8957.93 4088.88,8964.57 4084.84,8969.34 4082.83,8970.21"/>
    </edge>
    <edge id=":111_17" function="internal">
        <lane id=":111_17_0" index="0" speed="11.44" length="14.61" shape="4082.83,8970.21 4078.11,8972.25 4068.70,8973.28"/>
    </edge>
    <edge id=":111_8" function="internal">
        <lane id=":111_8_0" index="0" speed="7.40" length="11.87" shape="4068.64,8966.88 4071.08,8966.30 4072.83,8964.61 4073.89,8961.80 4074.24,8957.89"/>
    </edge>
    <edge id=":111_9" function="internal">
        <lane id=":111_9_0" index="0" speed="13.41" length="33.78" shape="4068.64,8966.88 4076.00,8966.31 4083.56,8965.16 4092.06,8964.04 4102.23,8963.57"/>
    </edge>
    <edge id=":111_10" function="internal">
        <lane id=":111_10_0" index="0" speed="11.16" length="11.68" shape="4068.67,8970.08 4078.09,8970.93 4080.14,8971.78"/>
    </edge>
    <edge id=":111_11" function="internal">
        <lane id=":111_11_0" index="0" speed="3.65" length="4.67" shape="4068.67,8970.08 4069.88,8970.87 4070.28,8971.66 4069.89,8972.47 4068.70,8973.28"/>
    </edge>
    <edge id=":111_18" function="internal">
        <lane id=":111_18_0" index="0" speed="11.16" length="17.74" shape="4080.14,8971.78 4084.75,8973.69 4088.66,8978.35 4089.82,8984.91"/>
    </edge>
    <edge id=":111_12" function="internal">
        <lane id=":111_12_0" index="0" speed="8.97" length="18.61" shape="4080.22,8984.63 4079.63,8979.62 4077.51,8976.06 4073.87,8973.95 4068.70,8973.28"/>
    </edge>
    <edge id=":111_13" function="internal">
        <lane id=":111_13_0" index="0" speed="13.41" length="27.69" shape="4080.22,8984.63 4079.45,8976.60 4077.37,8971.26 4075.22,8965.92 4074.24,8957.89"/>
        <lane id=":111_13_1" index="1" speed="13.41" length="27.69" shape="4083.42,8984.72 4082.65,8976.67 4080.57,8971.31 4078.42,8965.95 4077.44,8957.89"/>
    </edge>
    <edge id=":111_15" function="internal">
        <lane id=":111_15_0" index="0" speed="10.44" length="11.81" shape="4086.62,8984.82 4087.76,8978.29 4090.55,8973.92"/>
    </edge>
    <edge id=":111_19" function="internal">
        <lane id=":111_19_0" index="0" speed="10.44" length="12.60" shape="4090.55,8973.92 4090.73,8973.64 4095.54,8970.87 4102.19,8969.97"/>
    </edge>
    <edge id=":112_0" function="internal">
        <lane id=":112_0_0" index="0" speed="3.65" length="4.67" shape="4530.48,8972.03 4531.67,8972.84 4532.07,8973.64 4531.67,8974.44 4530.46,8975.23"/>
    </edge>
    <edge id=":117_0" function="internal">
        <lane id=":117_0_0" index="0" speed="7.20" length="11.43" shape="4072.75,9253.66 4072.37,9249.95 4071.31,9247.32 4069.54,9245.77 4067.07,9245.29"/>
    </edge>
    <edge id=":117_1" function="internal">
        <lane id=":117_1_0" index="0" speed="14.53" length="20.36" shape="4072.75,9253.66 4072.98,9233.24"/>
        <lane id=":117_1_1" index="1" speed="14.53" length="20.36" shape="4075.95,9253.64 4076.18,9233.34"/>
    </edge>
    <edge id=":117_3" function="internal">
        <lane id=":117_3_0" index="0" speed="9.92" length="9.99" shape="4079.15,9253.62 4080.08,9248.43 4082.93,9244.68"/>
    </edge>
    <edge id=":117_16" function="internal">
        <lane id=":117_16_0" index="0" speed="9.92" length="12.09" shape="4082.93,9244.68 4087.72,9242.35 4094.43,9241.46"/>
    </edge>
    <edge id=":117_4" function="internal">
        <lane id=":117_4_0" index="0" speed="6.62" length="9.27" shape="4094.58,9247.86 4092.02,9248.27 4090.19,9249.35 4089.10,9251.12 4088.75,9253.57"/>
    </edge>
    <edge id=":117_5" function="internal">
        <lane id=":117_5_0" index="0" speed="13.41" length="27.65" shape="4094.58,9247.86 4086.77,9247.54 4078.95,9246.62 4072.07,9245.68 4067.07,9245.29"/>
    </edge>
    <edge id=":117_6" function="internal">
        <lane id=":117_6_0" index="0" speed="9.57" length="9.26" shape="4094.50,9244.66 4087.76,9244.09 4085.47,9243.10"/>
    </edge>
    <edge id=":117_7" function="internal">
        <lane id=":117_7_0" index="0" speed="3.65" length="4.67" shape="4094.50,9244.66 4093.29,9243.89 4092.87,9243.10 4093.25,9242.29 4094.43,9241.46"/>
    </edge>
    <edge id=":117_17" function="internal">
        <lane id=":117_17_0" index="0" speed="9.57" length="12.34" shape="4085.47,9243.10 4082.99,9242.03 4080.20,9238.48 4079.38,9233.43"/>
    </edge>
    <edge id=":117_8" function="internal">
        <lane id=":117_8_0" index="0" speed="6.94" length="10.84" shape="4088.98,9233.71 4089.23,9237.15 4090.22,9239.59 4091.96,9241.02 4094.43,9241.46"/>
    </edge>
    <edge id=":117_9" function="internal">
        <lane id=":117_9_0" index="0" speed="14.53" length="19.91" shape="4088.98,9233.71 4088.75,9253.57"/>
        <lane id=":117_9_1" index="1" speed="14.53" length="19.91" shape="4085.78,9233.62 4085.55,9253.58"/>
    </edge>
    <edge id=":117_11" function="internal">
        <lane id=":117_11_0" index="0" speed="10.00" length="9.49" shape="4082.58,9233.52 4081.48,9238.54 4078.74,9241.92"/>
    </edge>
    <edge id=":117_18" function="internal">
        <lane id=":117_18_0" index="0" speed="10.00" length="12.34" shape="4078.74,9241.92 4078.54,9242.18 4073.73,9244.43 4067.07,9245.29"/>
    </edge>
    <edge id=":117_12" function="internal">
        <lane id=":117_12_0" index="0" speed="6.73" length="9.34" shape="4066.93,9238.90 4069.52,9238.49 4071.39,9237.41 4072.54,9235.67 4072.98,9233.24"/>
    </edge>
    <edge id=":117_13" function="internal">
        <lane id=":117_13_0" index="0" speed="13.41" length="27.64" shape="4066.93,9238.90 4074.74,9239.22 4082.55,9240.13 4089.43,9241.08 4094.43,9241.46"/>
    </edge>
    <edge id=":117_14" function="internal">
        <lane id=":117_14_0" index="0" speed="9.75" length="9.04" shape="4067.00,9242.09 4073.69,9242.68 4075.81,9243.62"/>
    </edge>
    <edge id=":117_15" function="internal">
        <lane id=":117_15_0" index="0" speed="3.65" length="4.67" shape="4067.00,9242.09 4068.22,9242.87 4068.64,9243.66 4068.25,9244.47 4067.07,9245.29"/>
    </edge>
    <edge id=":117_19" function="internal">
        <lane id=":117_19_0" index="0" speed="9.75" length="12.82" shape="4075.81,9243.62 4078.48,9244.80 4081.36,9248.44 4082.35,9253.60"/>
    </edge>
    <edge id=":119_0" function="internal">
        <lane id=":119_0_0" index="0" speed="3.65" length="4.67" shape="1063.67,8194.30 1062.47,8193.50 1062.07,8192.70 1062.47,8191.90 1063.67,8191.10"/>
    </edge>
    <edge id=":120_0" function="internal">
        <lane id=":120_0_0" index="0" speed="8.10" length="14.57" shape="2104.73,8214.03 2104.36,8208.79 2103.30,8205.04 2101.54,8202.80 2099.09,8202.05"/>
    </edge>
    <edge id=":120_1" function="internal">
        <lane id=":120_1_0" index="0" speed="16.77" length="43.77" shape="2107.93,8214.02 2108.88,8200.17 2111.02,8189.86 2113.16,8180.82 2114.07,8170.81"/>
        <lane id=":120_1_1" index="1" speed="16.77" length="43.77" shape="2111.13,8214.01 2112.08,8200.16 2114.22,8189.84 2116.36,8180.80 2117.27,8170.78"/>
        <lane id=":120_1_2" index="2" speed="16.77" length="43.77" shape="2114.33,8214.00 2115.28,8200.14 2117.42,8189.81 2119.56,8180.77 2120.47,8170.76"/>
    </edge>
    <edge id=":120_4" function="internal">
        <lane id=":120_4_0" index="0" speed="13.57" length="42.60" shape="2117.53,8213.99 2119.04,8201.75 2123.65,8192.98 2131.37,8187.67 2142.21,8185.83"/>
        <lane id=":120_4_1" index="1" speed="12.75" length="37.46" shape="2120.73,8213.98 2122.04,8203.14 2126.06,8195.36 2132.79,8190.66 2142.23,8189.03"/>
    </edge>
    <edge id=":120_6" function="internal">
        <lane id=":120_6_0" index="0" speed="8.87" length="17.60" shape="2142.41,8208.23 2135.72,8208.64 2130.94,8209.73 2128.08,8211.50 2127.13,8213.96"/>
    </edge>
    <edge id=":120_7" function="internal">
        <lane id=":120_7_0" index="0" speed="20.12" length="43.37" shape="2142.38,8205.03 2099.09,8202.05"/>
        <lane id=":120_7_1" index="1" speed="20.12" length="43.37" shape="2142.35,8201.83 2099.08,8198.85"/>
        <lane id=":120_7_2" index="2" speed="20.12" length="43.37" shape="2142.32,8198.63 2099.08,8195.65"/>
    </edge>
    <edge id=":120_10" function="internal">
        <lane id=":120_10_0" index="0" speed="13.14" length="40.05" shape="2142.29,8195.43 2131.43,8193.97 2123.64,8189.38 2118.92,8181.65 2117.27,8170.78"/>
        <lane id=":120_10_1" index="1" speed="12.29" length="34.89" shape="2142.26,8192.23 2132.80,8190.96 2126.02,8186.96 2121.90,8180.22 2120.47,8170.76"/>
    </edge>
    <edge id=":120_12" function="internal">
        <lane id=":120_12_0" index="0" speed="3.65" length="4.67" shape="2142.26,8192.23 2141.06,8191.44 2140.65,8190.64 2141.04,8189.84 2142.23,8189.03"/>
    </edge>
    <edge id=":120_13" function="internal">
        <lane id=":120_13_0" index="0" speed="8.12" length="14.63" shape="2136.47,8170.61 2136.87,8175.89 2137.95,8179.65 2139.72,8181.90 2142.18,8182.63"/>
    </edge>
    <edge id=":120_14" function="internal">
        <lane id=":120_14_0" index="0" speed="19.00" length="43.84" shape="2133.27,8170.64 2132.39,8185.23 2130.26,8196.75 2128.10,8206.05 2127.13,8213.96"/>
        <lane id=":120_14_1" index="1" speed="19.00" length="43.84" shape="2130.07,8170.67 2129.19,8185.25 2127.06,8196.77 2124.90,8206.06 2123.93,8213.97"/>
    </edge>
    <edge id=":120_16" function="internal">
        <lane id=":120_16_0" index="0" speed="13.51" length="42.62" shape="2126.87,8170.70 2125.22,8181.60 2120.03,8189.39 2111.32,8194.07 2099.08,8195.65"/>
        <lane id=":120_16_1" index="1" speed="12.68" length="37.43" shape="2123.67,8170.73 2122.21,8180.21 2117.62,8187.00 2109.91,8191.08 2099.07,8192.45"/>
    </edge>
    <edge id=":120_18" function="internal">
        <lane id=":120_18_0" index="0" speed="8.77" length="17.36" shape="2099.04,8176.45 2105.64,8176.09 2110.34,8175.03 2113.15,8173.27 2114.07,8170.81"/>
    </edge>
    <edge id=":120_19" function="internal">
        <lane id=":120_19_0" index="0" speed="20.12" length="43.24" shape="2099.05,8179.65 2142.18,8182.63"/>
        <lane id=":120_19_1" index="1" speed="20.12" length="43.24" shape="2099.06,8182.85 2142.21,8185.83"/>
    </edge>
    <edge id=":120_21" function="internal">
        <lane id=":120_21_0" index="0" speed="13.94" length="45.12" shape="2099.06,8186.05 2111.31,8187.78 2120.06,8193.00 2125.34,8201.73 2127.13,8213.96"/>
        <lane id=":120_21_1" index="1" speed="13.13" length="39.96" shape="2099.07,8189.25 2109.91,8190.78 2117.67,8195.41 2122.34,8203.14 2123.93,8213.97"/>
    </edge>
    <edge id=":120_23" function="internal">
        <lane id=":120_23_0" index="0" speed="3.65" length="4.67" shape="2099.07,8189.25 2100.27,8190.05 2100.67,8190.85 2100.27,8191.65 2099.07,8192.45"/>
    </edge>
    <edge id=":121_0" function="internal">
        <lane id=":121_0_0" index="0" speed="6.56" length="9.03" shape="2934.62,8206.67 2934.19,8204.24 2933.09,8202.51 2931.32,8201.48 2928.88,8201.16"/>
    </edge>
    <edge id=":121_1" function="internal">
        <lane id=":121_1_0" index="0" speed="14.53" length="37.30" shape="2934.62,8206.67 2934.82,8195.93 2935.74,8186.17 2936.80,8177.35 2937.41,8169.42"/>