<additional>
    <!-- Default -->
    <vType id="car" maxSpeed="13.39" minGap="1.5" tau="0.9" accel="2.6" decel="4.5" emergencyDecel="9.0" startupDelay="0.0"/>
</additional>
