<?xml version="1.0" encoding="UTF-8"?>

<configuration>
    <input>
        <net-file value="tempe.net.xml"/>
        <route-files value="tempe.rou.xml"/>
    </input>
    <time>
        <begin value="27000"/>
        <end value="34200"/>
        <step-length value="1"/>
    </time>

    <processing>
        <time-to-teleport value="0" />
    </processing>
</configuration>
