<?xml version="1.0" encoding="UTF-8"?>

<!-- generated on 2025-09-13 14:29:59.393528 by cutRoutes.py UNKNOWN
<configuration>
    <min-length value="2"/>
    <routes-output value="tempe_1x1.rou.xml"/>
    <orig-net value="tempe.net.xml"/>
    <big value="True"/>
    <network value="1x1/tempe_1x1.net.xml"/>
    <routeFiles value="tempe.rou.xml"/>
</configuration>
-->

<routes xmlns:xsi="http://www.w3.org/2001/XMLSchema-instance" xsi:noNamespaceSchemaLocation="http://sumo.dlr.de/xsd/routes_file.xsd">
    <!-- <vType id="car" maxSpeed="13.39" minGap="1.5" tau="0.9" accel="2.6" decel="4.5" emergencyDecel="9.0" startupDelay="0.0"/> -->
    <vehicle id="102_114.0" type="car" depart="27000.00">
        <route edges="102_99 99_114"/>
    </vehicle>
    <vehicle id="102_97.0" type="car" depart="27000.00">
        <route edges="102_99 99_97"/>
    </vehicle>
    <vehicle id="114_525.0" type="car" depart="27000.00">
        <route edges="114_99 99_525"/>
    </vehicle>
    <vehicle id="114_97.0" type="car" depart="27000.00">
        <route edges="114_99 99_97"/>
    </vehicle>
    <vehicle id="525_102.0" type="car" depart="27000.00">
        <route edges="525_99 99_102"/>
    </vehicle>
    <vehicle id="525_114.0" type="car" depart="27000.00">
        <route edges="525_99 99_114"/>
    </vehicle>
    <vehicle id="525_97.0" type="car" depart="27000.00">
        <route edges="525_99 99_97"/>
    </vehicle>
    <vehicle id="97_102.0" type="car" depart="27000.00">
        <route edges="97_99 99_102"/>
    </vehicle>
    <vehicle id="97_525.0" type="car" depart="27000.00">
        <route edges="97_99 99_525"/>
    </vehicle>
    <vehicle id="102_97.1" type="car" depart="27006.36">
        <route edges="102_99 99_97"/>
    </vehicle>
    <vehicle id="114_525.1" type="car" depart="27006.87">
        <route edges="114_99 99_525"/>
    </vehicle>
    <vehicle id="102_97.2" type="car" depart="27012.72">
        <route edges="102_99 99_97"/>
    </vehicle>
    <vehicle id="97_102.1" type="car" depart="27013.14">
        <route edges="97_99 99_102"/>
    </vehicle>
    <vehicle id="114_525.2" type="car" depart="27013.74">
        <route edges="114_99 99_525"/>
    </vehicle>
    <vehicle id="102_97.3" type="car" depart="27019.08">
        <route edges="102_99 99_97"/>
    </vehicle>
    <vehicle id="525_114.1" type="car" depart="27019.41">
        <route edges="525_99 99_114"/>
    </vehicle>
    <vehicle id="114_525.3" type="car" depart="27020.61">
        <route edges="114_99 99_525"/>
    </vehicle>
    <vehicle id="102_97.4" type="car" depart="27025.44">
        <route edges="102_99 99_97"/>
    </vehicle>
    <vehicle id="97_102.2" type="car" depart="27026.28">
        <route edges="97_99 99_102"/>
    </vehicle>
    <vehicle id="114_525.4" type="car" depart="27027.48">
        <route edges="114_99 99_525"/>
    </vehicle>
    <vehicle id="114_97.1" type="car" depart="27029.39">
        <route edges="114_99 99_97"/>
    </vehicle>
    <vehicle id="102_97.5" type="car" depart="27031.80">
        <route edges="102_99 99_97"/>
    </vehicle>
    <vehicle id="114_525.5" type="car" depart="27034.35">
        <route edges="114_99 99_525"/>
    </vehicle>
    <vehicle id="102_97.6" type="car" depart="27038.16">
        <route edges="102_99 99_97"/>
    </vehicle>
    <vehicle id="525_114.2" type="car" depart="27038.81">
        <route edges="525_99 99_114"/>
    </vehicle>
    <vehicle id="97_102.3" type="car" depart="27039.41">
        <route edges="97_99 99_102"/>
    </vehicle>
    <vehicle id="114_525.6" type="car" depart="27041.22">
        <route edges="114_99 99_525"/>
    </vehicle>
    <vehicle id="102_97.7" type="car" depart="27044.52">
        <route edges="102_99 99_97"/>
    </vehicle>
    <vehicle id="114_525.7" type="car" depart="27048.09">
        <route edges="114_99 99_525"/>
    </vehicle>
    <vehicle id="102_97.8" type="car" depart="27050.88">
        <route edges="102_99 99_97"/>
    </vehicle>
    <vehicle id="97_102.4" type="car" depart="27052.55">
        <route edges="97_99 99_102"/>
    </vehicle>
    <vehicle id="114_525.8" type="car" depart="27054.96">
        <route edges="114_99 99_525"/>
    </vehicle>
    <vehicle id="97_525.1" type="car" depart="27055.38">
        <route edges="97_99 99_525"/>
    </vehicle>
    <vehicle id="102_97.9" type="car" depart="27057.24">
        <route edges="102_99 99_97"/>
    </vehicle>
    <vehicle id="525_102.1" type="car" depart="27058.06">
        <route edges="525_99 99_102"/>
    </vehicle>
    <vehicle id="525_114.3" type="car" depart="27058.22">
        <route edges="525_99 99_114"/>
    </vehicle>
    <vehicle id="114_97.2" type="car" depart="27058.77">
        <route edges="114_99 99_97"/>
    </vehicle>
    <vehicle id="114_525.9" type="car" depart="27061.83">
        <route edges="114_99 99_525"/>
    </vehicle>
    <vehicle id="102_114.1" type="car" depart="27063.16">
        <route edges="102_99 99_114"/>
    </vehicle>
    <vehicle id="102_97.10" type="car" depart="27063.60">
        <route edges="102_99 99_97"/>
    </vehicle>
    <vehicle id="525_97.1" type="car" depart="27064.29">
        <route edges="525_99 99_97"/>
    </vehicle>
    <vehicle id="97_102.5" type="car" depart="27065.69">
        <route edges="97_99 99_102"/>
    </vehicle>
    <vehicle id="114_525.10" type="car" depart="27068.70">
        <route edges="114_99 99_525"/>
    </vehicle>
    <vehicle id="102_97.11" type="car" depart="27069.96">
        <route edges="102_99 99_97"/>
    </vehicle>
    <vehicle id="114_525.11" type="car" depart="27075.57">
        <route edges="114_99 99_525"/>
    </vehicle>
    <vehicle id="102_97.12" type="car" depart="27076.32">
        <route edges="102_99 99_97"/>
    </vehicle>
    <vehicle id="525_114.4" type="car" depart="27077.63">
        <route edges="525_99 99_114"/>
    </vehicle>
    <vehicle id="97_102.6" type="car" depart="27078.83">
        <route edges="97_99 99_102"/>
    </vehicle>
    <vehicle id="114_525.12" type="car" depart="27082.44">
        <route edges="114_99 99_525"/>
    </vehicle>
    <vehicle id="102_97.13" type="car" depart="27082.68">
        <route edges="102_99 99_97"/>
    </vehicle>
    <vehicle id="114_97.3" type="car" depart="27088.16">
        <route edges="114_99 99_97"/>
    </vehicle>
    <vehicle id="102_97.14" type="car" depart="27089.04">
        <route edges="102_99 99_97"/>
    </vehicle>
    <vehicle id="114_525.13" type="car" depart="27089.31">
        <route edges="114_99 99_525"/>
    </vehicle>
    <vehicle id="97_102.7" type="car" depart="27091.97">
        <route edges="97_99 99_102"/>
    </vehicle>
    <vehicle id="102_97.15" type="car" depart="27095.40">
        <route edges="102_99 99_97"/>
    </vehicle>
    <vehicle id="114_525.14" type="car" depart="27096.18">
        <route edges="114_99 99_525"/>
    </vehicle>
    <vehicle id="525_114.5" type="car" depart="27097.04">
        <route edges="525_99 99_114"/>
    </vehicle>
    <vehicle id="102_97.16" type="car" depart="27101.76">
        <route edges="102_99 99_97"/>
    </vehicle>
    <vehicle id="114_525.15" type="car" depart="27103.05">
        <route edges="114_99 99_525"/>
    </vehicle>
    <vehicle id="97_102.8" type="car" depart="27105.10">
        <route edges="97_99 99_102"/>
    </vehicle>
    <vehicle id="102_97.17" type="car" depart="27108.12">
        <route edges="102_99 99_97"/>
    </vehicle>
    <vehicle id="114_525.16" type="car" depart="27109.92">
        <route edges="114_99 99_525"/>
    </vehicle>
    <vehicle id="97_525.2" type="car" depart="27110.77">
        <route edges="97_99 99_525"/>
    </vehicle>
    <vehicle id="102_97.18" type="car" depart="27114.48">
        <route edges="102_99 99_97"/>
    </vehicle>
    <vehicle id="525_102.2" type="car" depart="27116.13">
        <route edges="525_99 99_102"/>
    </vehicle>
    <vehicle id="525_114.6" type="car" depart="27116.44">
        <route edges="525_99 99_114"/>
    </vehicle>
    <vehicle id="114_525.17" type="car" depart="27116.79">
        <route edges="114_99 99_525"/>
    </vehicle>
    <vehicle id="114_97.4" type="car" depart="27117.55">
        <route edges="114_99 99_97"/>
    </vehicle>
    <vehicle id="97_102.9" type="car" depart="27118.24">
        <route edges="97_99 99_102"/>
    </vehicle>
    <vehicle id="102_97.19" type="car" depart="27120.84">
        <route edges="102_99 99_97"/>
    </vehicle>
    <vehicle id="114_525.18" type="car" depart="27123.66">
        <route edges="114_99 99_525"/>
    </vehicle>
    <vehicle id="102_114.2" type="car" depart="27126.31">
        <route edges="102_99 99_114"/>
    </vehicle>
    <vehicle id="102_97.20" type="car" depart="27127.20">
        <route edges="102_99 99_97"/>
    </vehicle>
    <vehicle id="525_97.2" type="car" depart="27128.57">
        <route edges="525_99 99_97"/>
    </vehicle>
    <vehicle id="114_525.19" type="car" depart="27130.53">
        <route edges="114_99 99_525"/>
    </vehicle>
    <vehicle id="97_102.10" type="car" depart="27131.38">
        <route edges="97_99 99_102"/>
    </vehicle>
    <vehicle id="102_97.21" type="car" depart="27133.56">
        <route edges="102_99 99_97"/>
    </vehicle>
    <vehicle id="525_114.7" type="car" depart="27135.85">
        <route edges="525_99 99_114"/>
    </vehicle>
    <vehicle id="114_525.20" type="car" depart="27137.40">
        <route edges="114_99 99_525"/>
    </vehicle>
    <vehicle id="102_97.22" type="car" depart="27139.92">
        <route edges="102_99 99_97"/>
    </vehicle>
    <vehicle id="114_525.21" type="car" depart="27144.27">
        <route edges="114_99 99_525"/>
    </vehicle>
    <vehicle id="97_102.11" type="car" depart="27144.52">
        <route edges="97_99 99_102"/>
    </vehicle>
    <vehicle id="102_97.23" type="car" depart="27146.28">
        <route edges="102_99 99_97"/>
    </vehicle>
    <vehicle id="114_97.5" type="car" depart="27146.94">
        <route edges="114_99 99_97"/>
    </vehicle>
    <vehicle id="114_525.22" type="car" depart="27151.14">
        <route edges="114_99 99_525"/>
    </vehicle>
    <vehicle id="102_97.24" type="car" depart="27152.64">
        <route edges="102_99 99_97"/>
    </vehicle>
    <vehicle id="525_114.8" type="car" depart="27155.26">
        <route edges="525_99 99_114"/>
    </vehicle>
    <vehicle id="97_102.12" type="car" depart="27157.66">
        <route edges="97_99 99_102"/>
    </vehicle>
    <vehicle id="114_525.23" type="car" depart="27158.01">
        <route edges="114_99 99_525"/>
    </vehicle>
    <vehicle id="102_97.25" type="car" depart="27159.00">
        <route edges="102_99 99_97"/>
    </vehicle>
    <vehicle id="114_525.24" type="car" depart="27164.88">
        <route edges="114_99 99_525"/>
    </vehicle>
    <vehicle id="102_97.26" type="car" depart="27165.36">
        <route edges="102_99 99_97"/>
    </vehicle>
    <vehicle id="97_525.3" type="car" depart="27166.15">
        <route edges="97_99 99_525"/>
    </vehicle>
    <vehicle id="97_102.13" type="car" depart="27170.79">
        <route edges="97_99 99_102"/>
    </vehicle>
    <vehicle id="102_97.27" type="car" depart="27171.72">
        <route edges="102_99 99_97"/>
    </vehicle>
    <vehicle id="114_525.25" type="car" depart="27171.75">
        <route edges="114_99 99_525"/>
    </vehicle>
    <vehicle id="525_102.3" type="car" depart="27174.19">
        <route edges="525_99 99_102"/>
    </vehicle>
    <vehicle id="525_114.9" type="car" depart="27174.66">
        <route edges="525_99 99_114"/>
    </vehicle>
    <vehicle id="114_97.6" type="car" depart="27176.32">
        <route edges="114_99 99_97"/>
    </vehicle>
    <vehicle id="102_97.28" type="car" depart="27178.08">
        <route edges="102_99 99_97"/>
    </vehicle>
    <vehicle id="114_525.26" type="car" depart="27178.62">
        <route edges="114_99 99_525"/>
    </vehicle>
    <vehicle id="97_102.14" type="car" depart="27183.93">
        <route edges="97_99 99_102"/>
    </vehicle>
    <vehicle id="102_97.29" type="car" depart="27184.44">
        <route edges="102_99 99_97"/>
    </vehicle>
    <vehicle id="114_525.27" type="car" depart="27185.49">
        <route edges="114_99 99_525"/>
    </vehicle>
    <vehicle id="102_114.3" type="car" depart="27189.47">
        <route edges="102_99 99_114"/>
    </vehicle>
    <vehicle id="102_97.30" type="car" depart="27190.80">
        <route edges="102_99 99_97"/>
    </vehicle>
    <vehicle id="114_525.28" type="car" depart="27192.36">
        <route edges="114_99 99_525"/>
    </vehicle>
    <vehicle id="525_97.3" type="car" depart="27192.86">
        <route edges="525_99 99_97"/>
    </vehicle>
    <vehicle id="525_114.10" type="car" depart="27194.07">
        <route edges="525_99 99_114"/>
    </vehicle>
    <vehicle id="97_102.15" type="car" depart="27197.07">
        <route edges="97_99 99_102"/>
    </vehicle>
    <vehicle id="102_97.31" type="car" depart="27197.16">
        <route edges="102_99 99_97"/>
    </vehicle>
    <vehicle id="114_525.29" type="car" depart="27199.23">
        <route edges="114_99 99_525"/>
    </vehicle>
    <vehicle id="102_97.32" type="car" depart="27203.52">
        <route edges="102_99 99_97"/>
    </vehicle>
    <vehicle id="114_97.7" type="car" depart="27205.71">
        <route edges="114_99 99_97"/>
    </vehicle>
    <vehicle id="114_525.30" type="car" depart="27206.10">
        <route edges="114_99 99_525"/>
    </vehicle>
    <vehicle id="102_97.33" type="car" depart="27209.88">
        <route edges="102_99 99_97"/>
    </vehicle>
    <vehicle id="97_102.16" type="car" depart="27210.21">
        <route edges="97_99 99_102"/>
    </vehicle>
    <vehicle id="114_525.31" type="car" depart="27212.97">
        <route edges="114_99 99_525"/>
    </vehicle>
    <vehicle id="525_114.11" type="car" depart="27213.48">
        <route edges="525_99 99_114"/>
    </vehicle>
    <vehicle id="102_97.34" type="car" depart="27216.24">
        <route edges="102_99 99_97"/>
    </vehicle>
    <vehicle id="114_525.32" type="car" depart="27219.84">
        <route edges="114_99 99_525"/>
    </vehicle>
    <vehicle id="97_525.4" type="car" depart="27221.54">
        <route edges="97_99 99_525"/>
    </vehicle>
    <vehicle id="102_97.35" type="car" depart="27222.60">
        <route edges="102_99 99_97"/>
    </vehicle>
    <vehicle id="97_102.17" type="car" depart="27223.35">
        <route edges="97_99 99_102"/>
    </vehicle>
    <vehicle id="114_525.33" type="car" depart="27226.71">
        <route edges="114_99 99_525"/>
    </vehicle>
    <vehicle id="102_97.36" type="car" depart="27228.96">
        <route edges="102_99 99_97"/>
    </vehicle>
    <vehicle id="525_102.4" type="car" depart="27232.26">
        <route edges="525_99 99_102"/>
    </vehicle>
    <vehicle id="525_114.12" type="car" depart="27232.88">
        <route edges="525_99 99_114"/>
    </vehicle>
    <vehicle id="114_525.34" type="car" depart="27233.58">
        <route edges="114_99 99_525"/>
    </vehicle>
    <vehicle id="114_97.8" type="car" depart="27235.10">
        <route edges="114_99 99_97"/>
    </vehicle>
    <vehicle id="102_97.37" type="car" depart="27235.32">
        <route edges="102_99 99_97"/>
    </vehicle>
    <vehicle id="97_102.18" type="car" depart="27236.48">
        <route edges="97_99 99_102"/>
    </vehicle>
    <vehicle id="114_525.35" type="car" depart="27240.45">
        <route edges="114_99 99_525"/>
    </vehicle>
    <vehicle id="102_97.38" type="car" depart="27241.68">
        <route edges="102_99 99_97"/>
    </vehicle>
    <vehicle id="114_525.36" type="car" depart="27247.32">
        <route edges="114_99 99_525"/>
    </vehicle>
    <vehicle id="102_97.39" type="car" depart="27248.04">
        <route edges="102_99 99_97"/>
    </vehicle>
    <vehicle id="97_102.19" type="car" depart="27249.62">
        <route edges="97_99 99_102"/>
    </vehicle>
    <vehicle id="525_114.13" type="car" depart="27252.29">
        <route edges="525_99 99_114"/>
    </vehicle>
    <vehicle id="102_114.4" type="car" depart="27252.63">
        <route edges="102_99 99_114"/>
    </vehicle>
    <vehicle id="114_525.37" type="car" depart="27254.19">
        <route edges="114_99 99_525"/>
    </vehicle>
    <vehicle id="102_97.40" type="car" depart="27254.40">
        <route edges="102_99 99_97"/>
    </vehicle>
    <vehicle id="525_97.4" type="car" depart="27257.14">
        <route edges="525_99 99_97"/>
    </vehicle>
    <vehicle id="102_97.41" type="car" depart="27260.76">
        <route edges="102_99 99_97"/>
    </vehicle>
    <vehicle id="114_525.38" type="car" depart="27261.06">
        <route edges="114_99 99_525"/>
    </vehicle>
    <vehicle id="97_102.20" type="car" depart="27262.76">
        <route edges="97_99 99_102"/>
    </vehicle>
    <vehicle id="114_97.9" type="car" depart="27264.48">
        <route edges="114_99 99_97"/>
    </vehicle>
    <vehicle id="102_97.42" type="car" depart="27267.12">
        <route edges="102_99 99_97"/>
    </vehicle>
    <vehicle id="114_525.39" type="car" depart="27267.93">
        <route edges="114_99 99_525"/>
    </vehicle>
    <vehicle id="525_114.14" type="car" depart="27271.70">
        <route edges="525_99 99_114"/>
    </vehicle>
    <vehicle id="102_97.43" type="car" depart="27273.48">
        <route edges="102_99 99_97"/>
    </vehicle>
    <vehicle id="114_525.40" type="car" depart="27274.80">
        <route edges="114_99 99_525"/>
    </vehicle>
    <vehicle id="97_102.21" type="car" depart="27275.90">
        <route edges="97_99 99_102"/>
    </vehicle>
    <vehicle id="97_525.5" type="car" depart="27276.92">
        <route edges="97_99 99_525"/>
    </vehicle>
    <vehicle id="102_97.44" type="car" depart="27279.84">
        <route edges="102_99 99_97"/>
    </vehicle>
    <vehicle id="114_525.41" type="car" depart="27281.67">
        <route edges="114_99 99_525"/>
    </vehicle>
    <vehicle id="102_97.45" type="car" depart="27286.20">
        <route edges="102_99 99_97"/>
    </vehicle>
    <vehicle id="114_525.42" type="car" depart="27288.54">
        <route edges="114_99 99_525"/>
    </vehicle>
    <vehicle id="97_102.22" type="car" depart="27289.04">
        <route edges="97_99 99_102"/>
    </vehicle>
    <vehicle id="525_102.5" type="car" depart="27290.32">
        <route edges="525_99 99_102"/>
    </vehicle>
    <vehicle id="525_114.15" type="car" depart="27291.11">
        <route edges="525_99 99_114"/>
    </vehicle>
    <vehicle id="102_97.46" type="car" depart="27292.56">
        <route edges="102_99 99_97"/>
    </vehicle>
    <vehicle id="114_97.10" type="car" depart="27293.87">
        <route edges="114_99 99_97"/>
    </vehicle>
    <vehicle id="114_525.43" type="car" depart="27295.41">
        <route edges="114_99 99_525"/>
    </vehicle>
    <vehicle id="102_97.47" type="car" depart="27298.92">
        <route edges="102_99 99_97"/>
    </vehicle>
    <vehicle id="97_102.23" type="car" depart="27302.17">
        <route edges="97_99 99_102"/>
    </vehicle>
    <vehicle id="114_525.44" type="car" depart="27302.28">
        <route edges="114_99 99_525"/>
    </vehicle>
    <vehicle id="102_97.48" type="car" depart="27305.28">
        <route edges="102_99 99_97"/>
    </vehicle>
    <vehicle id="114_525.45" type="car" depart="27309.15">
        <route edges="114_99 99_525"/>
    </vehicle>
    <vehicle id="525_114.16" type="car" depart="27310.51">
        <route edges="525_99 99_114"/>
    </vehicle>
    <vehicle id="102_97.49" type="car" depart="27311.64">
        <route edges="102_99 99_97"/>
    </vehicle>
    <vehicle id="97_102.24" type="car" depart="27315.31">
        <route edges="97_99 99_102"/>
    </vehicle>
    <vehicle id="102_114.5" type="car" depart="27315.79">
        <route edges="102_99 99_114"/>
    </vehicle>
    <vehicle id="114_525.46" type="car" depart="27316.02">
        <route edges="114_99 99_525"/>
    </vehicle>
    <vehicle id="102_97.50" type="car" depart="27318.00">
        <route edges="102_99 99_97"/>
    </vehicle>
    <vehicle id="525_97.5" type="car" depart="27321.43">
        <route edges="525_99 99_97"/>
    </vehicle>
    <vehicle id="114_525.47" type="car" depart="27322.89">
        <route edges="114_99 99_525"/>
    </vehicle>
    <vehicle id="114_97.11" type="car" depart="27323.26">
        <route edges="114_99 99_97"/>
    </vehicle>
    <vehicle id="102_97.51" type="car" depart="27324.36">
        <route edges="102_99 99_97"/>
    </vehicle>
    <vehicle id="97_102.25" type="car" depart="27328.45">
        <route edges="97_99 99_102"/>
    </vehicle>
    <vehicle id="114_525.48" type="car" depart="27329.76">
        <route edges="114_99 99_525"/>
    </vehicle>
    <vehicle id="525_114.17" type="car" depart="27329.92">
        <route edges="525_99 99_114"/>
    </vehicle>
    <vehicle id="102_97.52" type="car" depart="27330.72">
        <route edges="102_99 99_97"/>
    </vehicle>
    <vehicle id="97_525.6" type="car" depart="27332.30">
        <route edges="97_99 99_525"/>
    </vehicle>
    <vehicle id="114_525.49" type="car" depart="27336.63">
        <route edges="114_99 99_525"/>
    </vehicle>
    <vehicle id="102_97.53" type="car" depart="27337.08">
        <route edges="102_99 99_97"/>
    </vehicle>
    <vehicle id="97_102.26" type="car" depart="27341.59">
        <route edges="97_99 99_102"/>
    </vehicle>
    <vehicle id="102_97.54" type="car" depart="27343.44">
        <route edges="102_99 99_97"/>
    </vehicle>
    <vehicle id="114_525.50" type="car" depart="27343.50">
        <route edges="114_99 99_525"/>
    </vehicle>
    <vehicle id="525_102.6" type="car" depart="27348.38">
        <route edges="525_99 99_102"/>
    </vehicle>
    <vehicle id="525_114.18" type="car" depart="27349.33">
        <route edges="525_99 99_114"/>
    </vehicle>
    <vehicle id="102_97.55" type="car" depart="27349.80">
        <route edges="102_99 99_97"/>
    </vehicle>
    <vehicle id="114_525.51" type="car" depart="27350.37">
        <route edges="114_99 99_525"/>
    </vehicle>
    <vehicle id="114_97.12" type="car" depart="27352.64">
        <route edges="114_99 99_97"/>
    </vehicle>
    <vehicle id="97_102.27" type="car" depart="27354.73">
        <route edges="97_99 99_102"/>
    </vehicle>
    <vehicle id="102_97.56" type="car" depart="27356.16">
        <route edges="102_99 99_97"/>
    </vehicle>
    <vehicle id="114_525.52" type="car" depart="27357.24">
        <route edges="114_99 99_525"/>
    </vehicle>
    <vehicle id="102_97.57" type="car" depart="27362.52">
        <route edges="102_99 99_97"/>
    </vehicle>
    <vehicle id="114_525.53" type="car" depart="27364.11">
        <route edges="114_99 99_525"/>
    </vehicle>
    <vehicle id="97_102.28" type="car" depart="27367.86">
        <route edges="97_99 99_102"/>
    </vehicle>
    <vehicle id="525_114.19" type="car" depart="27368.73">
        <route edges="525_99 99_114"/>
    </vehicle>
    <vehicle id="102_97.58" type="car" depart="27368.88">
        <route edges="102_99 99_97"/>
    </vehicle>
    <vehicle id="114_525.54" type="car" depart="27370.98">
        <route edges="114_99 99_525"/>
    </vehicle>
    <vehicle id="102_97.59" type="car" depart="27375.24">
        <route edges="102_99 99_97"/>
    </vehicle>
    <vehicle id="114_525.55" type="car" depart="27377.85">
        <route edges="114_99 99_525"/>
    </vehicle>
    <vehicle id="102_114.6" type="car" depart="27378.94">
        <route edges="102_99 99_114"/>
    </vehicle>
    <vehicle id="97_102.29" type="car" depart="27381.00">
        <route edges="97_99 99_102"/>
    </vehicle>
    <vehicle id="102_97.60" type="car" depart="27381.60">
        <route edges="102_99 99_97"/>
    </vehicle>
    <vehicle id="114_97.13" type="car" depart="27382.03">
        <route edges="114_99 99_97"/>
    </vehicle>
    <vehicle id="114_525.56" type="car" depart="27384.72">
        <route edges="114_99 99_525"/>
    </vehicle>
    <vehicle id="525_97.6" type="car" depart="27385.71">
        <route edges="525_99 99_97"/>
    </vehicle>
    <vehicle id="97_525.7" type="car" depart="27387.69">
        <route edges="97_99 99_525"/>
    </vehicle>
    <vehicle id="102_97.61" type="car" depart="27387.96">
        <route edges="102_99 99_97"/>
    </vehicle>
    <vehicle id="525_114.20" type="car" depart="27388.14">
        <route edges="525_99 99_114"/>
    </vehicle>
    <vehicle id="114_525.57" type="car" depart="27391.59">
        <route edges="114_99 99_525"/>
    </vehicle>
    <vehicle id="97_102.30" type="car" depart="27394.14">
        <route edges="97_99 99_102"/>
    </vehicle>
    <vehicle id="102_97.62" type="car" depart="27394.32">
        <route edges="102_99 99_97"/>
    </vehicle>
    <vehicle id="114_525.58" type="car" depart="27398.46">
        <route edges="114_99 99_525"/>
    </vehicle>
    <vehicle id="102_97.63" type="car" depart="27400.68">
        <route edges="102_99 99_97"/>
    </vehicle>
    <vehicle id="114_525.59" type="car" depart="27405.33">
        <route edges="114_99 99_525"/>
    </vehicle>
    <vehicle id="525_102.7" type="car" depart="27406.45">
        <route edges="525_99 99_102"/>
    </vehicle>
    <vehicle id="102_97.64" type="car" depart="27407.04">
        <route edges="102_99 99_97"/>
    </vehicle>
    <vehicle id="97_102.31" type="car" depart="27407.28">
        <route edges="97_99 99_102"/>
    </vehicle>
    <vehicle id="525_114.21" type="car" depart="27407.55">
        <route edges="525_99 99_114"/>
    </vehicle>
    <vehicle id="114_97.14" type="car" depart="27411.42">
        <route edges="114_99 99_97"/>
    </vehicle>
    <vehicle id="114_525.60" type="car" depart="27412.20">
        <route edges="114_99 99_525"/>
    </vehicle>
    <vehicle id="102_97.65" type="car" depart="27413.40">
        <route edges="102_99 99_97"/>
    </vehicle>
    <vehicle id="114_525.61" type="car" depart="27419.07">
        <route edges="114_99 99_525"/>
    </vehicle>
    <vehicle id="102_97.66" type="car" depart="27419.76">
        <route edges="102_99 99_97"/>
    </vehicle>
    <vehicle id="97_102.32" type="car" depart="27420.42">
        <route edges="97_99 99_102"/>
    </vehicle>
    <vehicle id="114_525.62" type="car" depart="27425.94">
        <route edges="114_99 99_525"/>
    </vehicle>
    <vehicle id="102_97.67" type="car" depart="27426.12">
        <route edges="102_99 99_97"/>
    </vehicle>
    <vehicle id="525_114.22" type="car" depart="27426.95">
        <route edges="525_99 99_114"/>
    </vehicle>
    <vehicle id="102_97.68" type="car" depart="27432.48">
        <route edges="102_99 99_97"/>
    </vehicle>
    <vehicle id="114_525.63" type="car" depart="27432.81">
        <route edges="114_99 99_525"/>
    </vehicle>
    <vehicle id="97_102.33" type="car" depart="27433.55">
        <route edges="97_99 99_102"/>
    </vehicle>
    <vehicle id="102_97.69" type="car" depart="27438.84">
        <route edges="102_99 99_97"/>
    </vehicle>
    <vehicle id="114_525.64" type="car" depart="27439.68">
        <route edges="114_99 99_525"/>
    </vehicle>
    <vehicle id="114_97.15" type="car" depart="27440.81">
        <route edges="114_99 99_97"/>
    </vehicle>
    <vehicle id="102_114.7" type="car" depart="27442.10">
        <route edges="102_99 99_114"/>
    </vehicle>
    <vehicle id="97_525.8" type="car" depart="27443.07">
        <route edges="97_99 99_525"/>
    </vehicle>
    <vehicle id="102_97.70" type="car" depart="27445.20">
        <route edges="102_99 99_97"/>
    </vehicle>
    <vehicle id="525_114.23" type="car" depart="27446.36">
        <route edges="525_99 99_114"/>
    </vehicle>
    <vehicle id="114_525.65" type="car" depart="27446.55">
        <route edges="114_99 99_525"/>
    </vehicle>
    <vehicle id="97_102.34" type="car" depart="27446.69">
        <route edges="97_99 99_102"/>
    </vehicle>
    <vehicle id="525_97.7" type="car" depart="27450.00">
        <route edges="525_99 99_97"/>
    </vehicle>
    <vehicle id="102_97.71" type="car" depart="27451.56">
        <route edges="102_99 99_97"/>
    </vehicle>
    <vehicle id="114_525.66" type="car" depart="27453.42">
        <route edges="114_99 99_525"/>
    </vehicle>
    <vehicle id="102_97.72" type="car" depart="27457.92">
        <route edges="102_99 99_97"/>
    </vehicle>
    <vehicle id="97_102.35" type="car" depart="27459.83">
        <route edges="97_99 99_102"/>
    </vehicle>
    <vehicle id="114_525.67" type="car" depart="27460.29">
        <route edges="114_99 99_525"/>
    </vehicle>
    <vehicle id="102_97.73" type="car" depart="27464.28">
        <route edges="102_99 99_97"/>
    </vehicle>
    <vehicle id="525_102.8" type="car" depart="27464.51">
        <route edges="525_99 99_102"/>
    </vehicle>
    <vehicle id="525_114.24" type="car" depart="27465.77">
        <route edges="525_99 99_114"/>
    </vehicle>
    <vehicle id="114_525.68" type="car" depart="27467.16">
        <route edges="114_99 99_525"/>
    </vehicle>
    <vehicle id="114_97.16" type="car" depart="27470.19">
        <route edges="114_99 99_97"/>
    </vehicle>
    <vehicle id="102_97.74" type="car" depart="27470.64">
        <route edges="102_99 99_97"/>
    </vehicle>
    <vehicle id="97_102.36" type="car" depart="27472.97">
        <route edges="97_99 99_102"/>
    </vehicle>
    <vehicle id="114_525.69" type="car" depart="27474.03">
        <route edges="114_99 99_525"/>
    </vehicle>
    <vehicle id="102_97.75" type="car" depart="27477.00">
        <route edges="102_99 99_97"/>
    </vehicle>
    <vehicle id="114_525.70" type="car" depart="27480.90">
        <route edges="114_99 99_525"/>
    </vehicle>
    <vehicle id="102_97.76" type="car" depart="27483.36">
        <route edges="102_99 99_97"/>
    </vehicle>
    <vehicle id="525_114.25" type="car" depart="27485.18">
        <route edges="525_99 99_114"/>
    </vehicle>
    <vehicle id="97_102.37" type="car" depart="27486.11">
        <route edges="97_99 99_102"/>
    </vehicle>